* File: sky130_fd_sc_hs__ha_4.pex.spice
* Created: Tue Sep  1 20:06:41 2020
* Program "Calibre xRC"
* Version "v2018.4_34.26"
* Nominal Temperature: 27C
* Circuit Temperature: 27C
* 
.subckt PM_SKY130_FD_SC_HS__HA_4%A_435_99# 1 2 3 10 12 13 14 15 17 18 20 21 23
+ 24 26 29 31 33 36 38 40 43 45 47 50 52 55 59 63 66 68 69 74 78 81 94
c192 68 0 1.09796e-19 $X=5.965 $Y=1.82
c193 10 0 1.8401e-19 $X=2.25 $Y=1.34
r194 94 95 9.82337 $w=3.68e-07 $l=7.5e-08 $layer=POLY_cond $X=7.515 $Y=1.542
+ $X2=7.59 $Y2=1.542
r195 93 94 46.4973 $w=3.68e-07 $l=3.55e-07 $layer=POLY_cond $X=7.16 $Y=1.542
+ $X2=7.515 $Y2=1.542
r196 92 93 12.4429 $w=3.68e-07 $l=9.5e-08 $layer=POLY_cond $X=7.065 $Y=1.542
+ $X2=7.16 $Y2=1.542
r197 89 90 15.0625 $w=3.68e-07 $l=1.15e-07 $layer=POLY_cond $X=6.615 $Y=1.542
+ $X2=6.73 $Y2=1.542
r198 88 89 41.2582 $w=3.68e-07 $l=3.15e-07 $layer=POLY_cond $X=6.3 $Y=1.542
+ $X2=6.615 $Y2=1.542
r199 78 80 0.122819 $w=2.98e-07 $l=3e-09 $layer=LI1_cond $X=4.07 $Y=1.907
+ $X2=4.07 $Y2=1.91
r200 77 78 13.7966 $w=2.98e-07 $l=3.37e-07 $layer=LI1_cond $X=4.07 $Y=1.57
+ $X2=4.07 $Y2=1.907
r201 75 92 36.019 $w=3.68e-07 $l=2.75e-07 $layer=POLY_cond $X=6.79 $Y=1.542
+ $X2=7.065 $Y2=1.542
r202 75 90 7.8587 $w=3.68e-07 $l=6e-08 $layer=POLY_cond $X=6.79 $Y=1.542
+ $X2=6.73 $Y2=1.542
r203 74 75 96.8533 $w=1.7e-07 $l=2.55e-07 $layer=licon1_POLY $count=1 $X=6.79
+ $Y=1.485 $X2=6.79 $Y2=1.485
r204 72 88 24.8859 $w=3.68e-07 $l=1.9e-07 $layer=POLY_cond $X=6.11 $Y=1.542
+ $X2=6.3 $Y2=1.542
r205 72 86 13.7527 $w=3.68e-07 $l=1.05e-07 $layer=POLY_cond $X=6.11 $Y=1.542
+ $X2=6.005 $Y2=1.542
r206 71 74 23.7473 $w=3.28e-07 $l=6.8e-07 $layer=LI1_cond $X=6.11 $Y=1.485
+ $X2=6.79 $Y2=1.485
r207 71 72 96.8533 $w=1.7e-07 $l=2.55e-07 $layer=licon1_POLY $count=1 $X=6.11
+ $Y=1.485 $X2=6.11 $Y2=1.485
r208 69 71 2.09535 $w=3.28e-07 $l=6e-08 $layer=LI1_cond $X=6.05 $Y=1.485
+ $X2=6.11 $Y2=1.485
r209 67 69 7.76618 $w=3.3e-07 $l=2.03101e-07 $layer=LI1_cond $X=5.965 $Y=1.65
+ $X2=6.05 $Y2=1.485
r210 67 68 11.0909 $w=1.68e-07 $l=1.7e-07 $layer=LI1_cond $X=5.965 $Y=1.65
+ $X2=5.965 $Y2=1.82
r211 66 81 8.29065 $w=3.28e-07 $l=1.65e-07 $layer=LI1_cond $X=5.12 $Y=1.985
+ $X2=4.955 $Y2=1.985
r212 63 68 7.76618 $w=3.3e-07 $l=2.03101e-07 $layer=LI1_cond $X=5.88 $Y=1.985
+ $X2=5.965 $Y2=1.82
r213 63 66 26.5411 $w=3.28e-07 $l=7.6e-07 $layer=LI1_cond $X=5.88 $Y=1.985
+ $X2=5.12 $Y2=1.985
r214 62 78 3.87205 $w=1.75e-07 $l=1.6e-07 $layer=LI1_cond $X=4.23 $Y=1.907
+ $X2=4.07 $Y2=1.907
r215 62 81 45.9481 $w=1.73e-07 $l=7.25e-07 $layer=LI1_cond $X=4.23 $Y=1.907
+ $X2=4.955 $Y2=1.907
r216 57 77 6.24057 $w=3.3e-07 $l=1.86145e-07 $layer=LI1_cond $X=4.115 $Y=1.405
+ $X2=4.07 $Y2=1.57
r217 57 59 23.2235 $w=3.28e-07 $l=6.65e-07 $layer=LI1_cond $X=4.115 $Y=1.405
+ $X2=4.115 $Y2=0.74
r218 55 85 9.19847 $w=3.93e-07 $l=7.5e-08 $layer=POLY_cond $X=3.24 $Y=1.58
+ $X2=3.315 $Y2=1.58
r219 55 83 45.9924 $w=3.93e-07 $l=3.75e-07 $layer=POLY_cond $X=3.24 $Y=1.58
+ $X2=2.865 $Y2=1.58
r220 54 55 145.28 $w=1.7e-07 $l=1.7e-07 $layer=licon1_POLY $count=1 $X=3.24
+ $Y=1.57 $X2=3.24 $Y2=1.57
r221 52 77 0.0845041 $w=3.3e-07 $l=1.7e-07 $layer=LI1_cond $X=3.9 $Y=1.57
+ $X2=4.07 $Y2=1.57
r222 52 54 23.0489 $w=3.28e-07 $l=6.6e-07 $layer=LI1_cond $X=3.9 $Y=1.57
+ $X2=3.24 $Y2=1.57
r223 48 95 23.8357 $w=1.5e-07 $l=2.22e-07 $layer=POLY_cond $X=7.59 $Y=1.32
+ $X2=7.59 $Y2=1.542
r224 48 50 297.404 $w=1.5e-07 $l=5.8e-07 $layer=POLY_cond $X=7.59 $Y=1.32
+ $X2=7.59 $Y2=0.74
r225 45 94 23.8357 $w=1.5e-07 $l=2.23e-07 $layer=POLY_cond $X=7.515 $Y=1.765
+ $X2=7.515 $Y2=1.542
r226 45 47 204.047 $w=1.5e-07 $l=6.35e-07 $layer=POLY_cond $X=7.515 $Y=1.765
+ $X2=7.515 $Y2=2.4
r227 41 93 23.8357 $w=1.5e-07 $l=2.22e-07 $layer=POLY_cond $X=7.16 $Y=1.32
+ $X2=7.16 $Y2=1.542
r228 41 43 297.404 $w=1.5e-07 $l=5.8e-07 $layer=POLY_cond $X=7.16 $Y=1.32
+ $X2=7.16 $Y2=0.74
r229 38 92 23.8357 $w=1.5e-07 $l=2.23e-07 $layer=POLY_cond $X=7.065 $Y=1.765
+ $X2=7.065 $Y2=1.542
r230 38 40 204.047 $w=1.5e-07 $l=6.35e-07 $layer=POLY_cond $X=7.065 $Y=1.765
+ $X2=7.065 $Y2=2.4
r231 34 90 23.8357 $w=1.5e-07 $l=2.22e-07 $layer=POLY_cond $X=6.73 $Y=1.32
+ $X2=6.73 $Y2=1.542
r232 34 36 297.404 $w=1.5e-07 $l=5.8e-07 $layer=POLY_cond $X=6.73 $Y=1.32
+ $X2=6.73 $Y2=0.74
r233 31 89 23.8357 $w=1.5e-07 $l=2.23e-07 $layer=POLY_cond $X=6.615 $Y=1.765
+ $X2=6.615 $Y2=1.542
r234 31 33 204.047 $w=1.5e-07 $l=6.35e-07 $layer=POLY_cond $X=6.615 $Y=1.765
+ $X2=6.615 $Y2=2.4
r235 27 88 23.8357 $w=1.5e-07 $l=2.22e-07 $layer=POLY_cond $X=6.3 $Y=1.32
+ $X2=6.3 $Y2=1.542
r236 27 29 297.404 $w=1.5e-07 $l=5.8e-07 $layer=POLY_cond $X=6.3 $Y=1.32 $X2=6.3
+ $Y2=0.74
r237 24 86 23.8357 $w=1.5e-07 $l=2.23e-07 $layer=POLY_cond $X=6.005 $Y=1.765
+ $X2=6.005 $Y2=1.542
r238 24 26 204.047 $w=1.5e-07 $l=6.35e-07 $layer=POLY_cond $X=6.005 $Y=1.765
+ $X2=6.005 $Y2=2.4
r239 21 85 25.4309 $w=1.5e-07 $l=2.4e-07 $layer=POLY_cond $X=3.315 $Y=1.82
+ $X2=3.315 $Y2=1.58
r240 21 23 159.06 $w=1.5e-07 $l=4.95e-07 $layer=POLY_cond $X=3.315 $Y=1.82
+ $X2=3.315 $Y2=2.315
r241 18 83 25.4309 $w=1.5e-07 $l=2.4e-07 $layer=POLY_cond $X=2.865 $Y=1.82
+ $X2=2.865 $Y2=1.58
r242 18 20 159.06 $w=1.5e-07 $l=4.95e-07 $layer=POLY_cond $X=2.865 $Y=1.82
+ $X2=2.865 $Y2=2.315
r243 15 83 17.7837 $w=3.93e-07 $l=3.03974e-07 $layer=POLY_cond $X=2.72 $Y=1.34
+ $X2=2.865 $Y2=1.58
r244 15 17 126.927 $w=1.5e-07 $l=3.95e-07 $layer=POLY_cond $X=2.72 $Y=1.34
+ $X2=2.72 $Y2=0.945
r245 13 15 28.4128 $w=3.93e-07 $l=1.06066e-07 $layer=POLY_cond $X=2.645 $Y=1.415
+ $X2=2.72 $Y2=1.34
r246 13 14 164.085 $w=1.5e-07 $l=3.2e-07 $layer=POLY_cond $X=2.645 $Y=1.415
+ $X2=2.325 $Y2=1.415
r247 10 14 26.9307 $w=1.5e-07 $l=1.06066e-07 $layer=POLY_cond $X=2.25 $Y=1.34
+ $X2=2.325 $Y2=1.415
r248 10 12 126.927 $w=1.5e-07 $l=3.95e-07 $layer=POLY_cond $X=2.25 $Y=1.34
+ $X2=2.25 $Y2=0.945
r249 3 66 600 $w=1.7e-07 $l=2.55441e-07 $layer=licon1_PDIFF $count=1 $X=4.895
+ $Y=2.05 $X2=5.12 $Y2=1.985
r250 2 80 600 $w=1.7e-07 $l=2.32379e-07 $layer=licon1_PDIFF $count=1 $X=3.84
+ $Y=1.895 $X2=4.065 $Y2=1.91
r251 1 59 91 $w=1.7e-07 $l=2.03286e-07 $layer=licon1_NDIFF $count=2 $X=3.975
+ $Y=0.595 $X2=4.115 $Y2=0.74
.ends

.subckt PM_SKY130_FD_SC_HS__HA_4%B 3 5 7 10 12 14 15 16 18 19 20 21 22 23 26 29
+ 31 33 37 39 41 43 44 46 47
c135 47 0 1.898e-19 $X=2.16 $Y=1.665
c136 23 0 1.26877e-19 $X=3.765 $Y=1.82
c137 12 0 7.21125e-20 $X=1.845 $Y=1.885
c138 3 0 1.44963e-19 $X=1.36 $Y=0.945
r139 55 56 6.32697 $w=4.19e-07 $l=5.5e-08 $layer=POLY_cond $X=1.79 $Y=1.67
+ $X2=1.845 $Y2=1.67
r140 53 55 6.90215 $w=4.19e-07 $l=6e-08 $layer=POLY_cond $X=1.73 $Y=1.67
+ $X2=1.79 $Y2=1.67
r141 51 53 38.537 $w=4.19e-07 $l=3.35e-07 $layer=POLY_cond $X=1.395 $Y=1.67
+ $X2=1.73 $Y2=1.67
r142 50 51 4.02625 $w=4.19e-07 $l=3.5e-08 $layer=POLY_cond $X=1.36 $Y=1.67
+ $X2=1.395 $Y2=1.67
r143 46 47 16.7628 $w=3.28e-07 $l=4.8e-07 $layer=LI1_cond $X=1.68 $Y=1.62
+ $X2=2.16 $Y2=1.62
r144 46 53 145.28 $w=1.7e-07 $l=1.7e-07 $layer=licon1_POLY $count=1 $X=1.73
+ $Y=1.62 $X2=1.73 $Y2=1.62
r145 39 44 74.0611 $w=1.8e-07 $l=1.85e-07 $layer=POLY_cond $X=4.37 $Y=2.965
+ $X2=4.37 $Y2=3.15
r146 39 41 159.06 $w=1.5e-07 $l=4.95e-07 $layer=POLY_cond $X=4.37 $Y=2.965
+ $X2=4.37 $Y2=2.47
r147 35 37 315.351 $w=1.5e-07 $l=6.15e-07 $layer=POLY_cond $X=4.33 $Y=1.53
+ $X2=4.33 $Y2=0.915
r148 34 42 13.9682 $w=1.5e-07 $l=1.5e-07 $layer=POLY_cond $X=3.975 $Y=1.605
+ $X2=3.825 $Y2=1.605
r149 33 35 26.9307 $w=1.5e-07 $l=1.06066e-07 $layer=POLY_cond $X=4.255 $Y=1.605
+ $X2=4.33 $Y2=1.53
r150 33 34 143.574 $w=1.5e-07 $l=2.8e-07 $layer=POLY_cond $X=4.255 $Y=1.605
+ $X2=3.975 $Y2=1.605
r151 32 43 23.6879 $w=1.5e-07 $l=9e-08 $layer=POLY_cond $X=3.855 $Y=3.15
+ $X2=3.765 $Y2=3.15
r152 31 44 7.1379 $w=1.5e-07 $l=9e-08 $layer=POLY_cond $X=4.28 $Y=3.15 $X2=4.37
+ $Y2=3.15
r153 31 32 217.926 $w=1.5e-07 $l=4.25e-07 $layer=POLY_cond $X=4.28 $Y=3.15
+ $X2=3.855 $Y2=3.15
r154 27 42 21.8618 $w=2.42e-07 $l=1.06066e-07 $layer=POLY_cond $X=3.9 $Y=1.53
+ $X2=3.825 $Y2=1.605
r155 27 29 315.351 $w=1.5e-07 $l=6.15e-07 $layer=POLY_cond $X=3.9 $Y=1.53
+ $X2=3.9 $Y2=0.915
r156 24 26 253.819 $w=1.5e-07 $l=4.95e-07 $layer=POLY_cond $X=3.765 $Y=2.81
+ $X2=3.765 $Y2=2.315
r157 23 42 49.7461 $w=2.42e-07 $l=2.43156e-07 $layer=POLY_cond $X=3.765 $Y=1.82
+ $X2=3.825 $Y2=1.605
r158 23 26 253.819 $w=1.5e-07 $l=4.95e-07 $layer=POLY_cond $X=3.765 $Y=1.82
+ $X2=3.765 $Y2=2.315
r159 22 43 2.7459 $w=1.8e-07 $l=7.5e-08 $layer=POLY_cond $X=3.765 $Y=3.075
+ $X2=3.765 $Y2=3.15
r160 21 24 36.0588 $w=1.8e-07 $l=9e-08 $layer=POLY_cond $X=3.765 $Y=2.9
+ $X2=3.765 $Y2=2.81
r161 21 22 68.0242 $w=1.8e-07 $l=1.75e-07 $layer=POLY_cond $X=3.765 $Y=2.9
+ $X2=3.765 $Y2=3.075
r162 19 43 23.6879 $w=1.5e-07 $l=9e-08 $layer=POLY_cond $X=3.675 $Y=3.15
+ $X2=3.765 $Y2=3.15
r163 19 20 638.394 $w=1.5e-07 $l=1.245e-06 $layer=POLY_cond $X=3.675 $Y=3.15
+ $X2=2.43 $Y2=3.15
r164 18 20 26.9307 $w=1.5e-07 $l=1.06066e-07 $layer=POLY_cond $X=2.355 $Y=3.075
+ $X2=2.43 $Y2=3.15
r165 17 18 612.755 $w=1.5e-07 $l=1.195e-06 $layer=POLY_cond $X=2.355 $Y=1.88
+ $X2=2.355 $Y2=3.075
r166 16 56 31.3489 $w=4.19e-07 $l=1.74284e-07 $layer=POLY_cond $X=1.935 $Y=1.805
+ $X2=1.845 $Y2=1.67
r167 15 17 26.9307 $w=1.5e-07 $l=1.06066e-07 $layer=POLY_cond $X=2.28 $Y=1.805
+ $X2=2.355 $Y2=1.88
r168 15 16 176.904 $w=1.5e-07 $l=3.45e-07 $layer=POLY_cond $X=2.28 $Y=1.805
+ $X2=1.935 $Y2=1.805
r169 12 56 27.0004 $w=1.5e-07 $l=2.15e-07 $layer=POLY_cond $X=1.845 $Y=1.885
+ $X2=1.845 $Y2=1.67
r170 12 14 184.767 $w=1.5e-07 $l=5.75e-07 $layer=POLY_cond $X=1.845 $Y=1.885
+ $X2=1.845 $Y2=2.46
r171 8 55 27.0004 $w=1.5e-07 $l=2.15e-07 $layer=POLY_cond $X=1.79 $Y=1.455
+ $X2=1.79 $Y2=1.67
r172 8 10 261.511 $w=1.5e-07 $l=5.1e-07 $layer=POLY_cond $X=1.79 $Y=1.455
+ $X2=1.79 $Y2=0.945
r173 5 51 27.0004 $w=1.5e-07 $l=2.15e-07 $layer=POLY_cond $X=1.395 $Y=1.885
+ $X2=1.395 $Y2=1.67
r174 5 7 184.767 $w=1.5e-07 $l=5.75e-07 $layer=POLY_cond $X=1.395 $Y=1.885
+ $X2=1.395 $Y2=2.46
r175 1 50 27.0004 $w=1.5e-07 $l=2.15e-07 $layer=POLY_cond $X=1.36 $Y=1.455
+ $X2=1.36 $Y2=1.67
r176 1 3 261.511 $w=1.5e-07 $l=5.1e-07 $layer=POLY_cond $X=1.36 $Y=1.455
+ $X2=1.36 $Y2=0.945
.ends

.subckt PM_SKY130_FD_SC_HS__HA_4%A 3 5 7 11 12 14 15 16 18 19 21 25 26 28 30 31
+ 33 34 35 36 37 38 46
c118 46 0 1.898e-19 $X=0.93 $Y=1.67
c119 28 0 1.39181e-20 $X=5.33 $Y=1.31
c120 12 0 5.25684e-20 $X=0.945 $Y=1.885
c121 5 0 2.13006e-19 $X=0.495 $Y=1.885
r122 46 47 1.9127 $w=3.78e-07 $l=1.5e-08 $layer=POLY_cond $X=0.93 $Y=1.67
+ $X2=0.945 $Y2=1.67
r123 44 46 26.1402 $w=3.78e-07 $l=2.05e-07 $layer=POLY_cond $X=0.725 $Y=1.67
+ $X2=0.93 $Y2=1.67
r124 42 44 29.328 $w=3.78e-07 $l=2.3e-07 $layer=POLY_cond $X=0.495 $Y=1.67
+ $X2=0.725 $Y2=1.67
r125 37 38 16.7628 $w=3.28e-07 $l=4.8e-07 $layer=LI1_cond $X=0.72 $Y=1.62
+ $X2=1.2 $Y2=1.62
r126 37 44 145.28 $w=1.7e-07 $l=1.7e-07 $layer=licon1_POLY $count=1 $X=0.725
+ $Y=1.62 $X2=0.725 $Y2=1.62
r127 36 37 16.7628 $w=3.28e-07 $l=4.8e-07 $layer=LI1_cond $X=0.24 $Y=1.62
+ $X2=0.72 $Y2=1.62
r128 31 35 36.308 $w=1.5e-07 $l=4.97971e-07 $layer=POLY_cond $X=5.345 $Y=1.765
+ $X2=5.255 $Y2=1.31
r129 31 33 159.06 $w=1.5e-07 $l=4.95e-07 $layer=POLY_cond $X=5.345 $Y=1.765
+ $X2=5.345 $Y2=2.26
r130 28 35 36.308 $w=1.5e-07 $l=7.5e-08 $layer=POLY_cond $X=5.33 $Y=1.31
+ $X2=5.255 $Y2=1.31
r131 28 30 126.927 $w=1.5e-07 $l=3.95e-07 $layer=POLY_cond $X=5.33 $Y=1.31
+ $X2=5.33 $Y2=0.915
r132 27 34 3.5291 $w=3.2e-07 $l=1.84932e-07 $layer=POLY_cond $X=4.91 $Y=1.47
+ $X2=4.73 $Y2=1.46
r133 26 35 4.67038 $w=3.2e-07 $l=1.6e-07 $layer=POLY_cond $X=5.255 $Y=1.47
+ $X2=5.255 $Y2=1.31
r134 26 27 62.2124 $w=3.2e-07 $l=3.45e-07 $layer=POLY_cond $X=5.255 $Y=1.47
+ $X2=4.91 $Y2=1.47
r135 23 34 33.9972 $w=1.65e-07 $l=1.93649e-07 $layer=POLY_cond $X=4.83 $Y=1.31
+ $X2=4.73 $Y2=1.46
r136 23 25 202.543 $w=1.5e-07 $l=3.95e-07 $layer=POLY_cond $X=4.83 $Y=1.31
+ $X2=4.83 $Y2=0.915
r137 22 25 338.426 $w=1.5e-07 $l=6.6e-07 $layer=POLY_cond $X=4.83 $Y=0.255
+ $X2=4.83 $Y2=0.915
r138 19 21 159.06 $w=1.5e-07 $l=4.95e-07 $layer=POLY_cond $X=4.82 $Y=1.975
+ $X2=4.82 $Y2=2.47
r139 18 19 36.0588 $w=1.8e-07 $l=9e-08 $layer=POLY_cond $X=4.82 $Y=1.885
+ $X2=4.82 $Y2=1.975
r140 17 34 33.9972 $w=1.65e-07 $l=2.10238e-07 $layer=POLY_cond $X=4.82 $Y=1.63
+ $X2=4.73 $Y2=1.46
r141 17 18 99.121 $w=1.8e-07 $l=2.55e-07 $layer=POLY_cond $X=4.82 $Y=1.63
+ $X2=4.82 $Y2=1.885
r142 15 22 26.9307 $w=1.5e-07 $l=1.06066e-07 $layer=POLY_cond $X=4.755 $Y=0.18
+ $X2=4.83 $Y2=0.255
r143 15 16 1922.87 $w=1.5e-07 $l=3.75e-06 $layer=POLY_cond $X=4.755 $Y=0.18
+ $X2=1.005 $Y2=0.18
r144 12 47 24.4846 $w=1.5e-07 $l=2.15e-07 $layer=POLY_cond $X=0.945 $Y=1.885
+ $X2=0.945 $Y2=1.67
r145 12 14 184.767 $w=1.5e-07 $l=5.75e-07 $layer=POLY_cond $X=0.945 $Y=1.885
+ $X2=0.945 $Y2=2.46
r146 9 46 24.4846 $w=1.5e-07 $l=2.15e-07 $layer=POLY_cond $X=0.93 $Y=1.455
+ $X2=0.93 $Y2=1.67
r147 9 11 261.511 $w=1.5e-07 $l=5.1e-07 $layer=POLY_cond $X=0.93 $Y=1.455
+ $X2=0.93 $Y2=0.945
r148 8 16 26.9307 $w=1.5e-07 $l=1.06066e-07 $layer=POLY_cond $X=0.93 $Y=0.255
+ $X2=1.005 $Y2=0.18
r149 8 11 353.809 $w=1.5e-07 $l=6.9e-07 $layer=POLY_cond $X=0.93 $Y=0.255
+ $X2=0.93 $Y2=0.945
r150 5 42 24.4846 $w=1.5e-07 $l=2.15e-07 $layer=POLY_cond $X=0.495 $Y=1.885
+ $X2=0.495 $Y2=1.67
r151 5 7 184.767 $w=1.5e-07 $l=5.75e-07 $layer=POLY_cond $X=0.495 $Y=1.885
+ $X2=0.495 $Y2=2.46
r152 1 42 24.4846 $w=1.5e-07 $l=2.15e-07 $layer=POLY_cond $X=0.495 $Y=1.455
+ $X2=0.495 $Y2=1.67
r153 1 3 261.511 $w=1.5e-07 $l=5.1e-07 $layer=POLY_cond $X=0.495 $Y=1.455
+ $X2=0.495 $Y2=0.945
.ends

.subckt PM_SKY130_FD_SC_HS__HA_4%A_294_392# 1 2 3 10 12 15 17 19 22 24 26 29 31
+ 32 35 37 39 42 46 49 50 52 54 57 58 63 64 67 68 69 72 74
c205 67 0 5.25684e-20 $X=1.62 $Y=2.12
c206 57 0 5.29972e-20 $X=7.81 $Y=2.32
c207 52 0 1.26877e-19 $X=3.9 $Y=2.25
c208 49 0 1.0136e-19 $X=2.585 $Y=1.905
c209 32 0 9.44376e-20 $X=9.025 $Y=1.485
c210 10 0 2.24074e-19 $X=7.965 $Y=1.765
r211 83 84 10.6693 $w=3.84e-07 $l=8.5e-08 $layer=POLY_cond $X=8.865 $Y=1.542
+ $X2=8.95 $Y2=1.542
r212 82 83 52.0911 $w=3.84e-07 $l=4.15e-07 $layer=POLY_cond $X=8.45 $Y=1.542
+ $X2=8.865 $Y2=1.542
r213 81 82 4.39323 $w=3.84e-07 $l=3.5e-08 $layer=POLY_cond $X=8.415 $Y=1.542
+ $X2=8.45 $Y2=1.542
r214 78 79 6.90365 $w=3.84e-07 $l=5.5e-08 $layer=POLY_cond $X=7.965 $Y=1.542
+ $X2=8.02 $Y2=1.542
r215 74 76 10.1123 $w=1.68e-07 $l=1.55e-07 $layer=LI1_cond $X=3.985 $Y=2.25
+ $X2=3.985 $Y2=2.405
r216 72 73 7.52055 $w=2.92e-07 $l=1.8e-07 $layer=LI1_cond $X=3.09 $Y=2.07
+ $X2=3.09 $Y2=2.25
r217 70 72 2.29795 $w=2.92e-07 $l=5.5e-08 $layer=LI1_cond $X=3.09 $Y=2.015
+ $X2=3.09 $Y2=2.07
r218 64 87 1.8075 $w=4e-07 $l=1.5e-08 $layer=POLY_cond $X=9.56 $Y=1.542
+ $X2=9.575 $Y2=1.542
r219 64 85 6.6275 $w=4e-07 $l=5.5e-08 $layer=POLY_cond $X=9.56 $Y=1.542
+ $X2=9.505 $Y2=1.542
r220 63 64 58.112 $w=1.7e-07 $l=4.25e-07 $layer=licon1_POLY $count=2 $X=9.56
+ $Y=1.485 $X2=9.56 $Y2=1.485
r221 61 81 47.0703 $w=3.84e-07 $l=3.75e-07 $layer=POLY_cond $X=8.04 $Y=1.542
+ $X2=8.415 $Y2=1.542
r222 61 79 2.51042 $w=3.84e-07 $l=2e-08 $layer=POLY_cond $X=8.04 $Y=1.542
+ $X2=8.02 $Y2=1.542
r223 60 63 53.0822 $w=3.28e-07 $l=1.52e-06 $layer=LI1_cond $X=8.04 $Y=1.485
+ $X2=9.56 $Y2=1.485
r224 60 61 58.112 $w=1.7e-07 $l=4.25e-07 $layer=licon1_POLY $count=2 $X=8.04
+ $Y=1.485 $X2=8.04 $Y2=1.485
r225 58 60 5.06376 $w=3.28e-07 $l=1.45e-07 $layer=LI1_cond $X=7.895 $Y=1.485
+ $X2=8.04 $Y2=1.485
r226 56 58 7.76618 $w=3.3e-07 $l=2.03101e-07 $layer=LI1_cond $X=7.81 $Y=1.65
+ $X2=7.895 $Y2=1.485
r227 56 57 43.7112 $w=1.68e-07 $l=6.7e-07 $layer=LI1_cond $X=7.81 $Y=1.65
+ $X2=7.81 $Y2=2.32
r228 55 76 0.716491 $w=1.7e-07 $l=8.5e-08 $layer=LI1_cond $X=4.07 $Y=2.405
+ $X2=3.985 $Y2=2.405
r229 54 57 6.81649 $w=1.7e-07 $l=1.20208e-07 $layer=LI1_cond $X=7.725 $Y=2.405
+ $X2=7.81 $Y2=2.32
r230 54 55 238.455 $w=1.68e-07 $l=3.655e-06 $layer=LI1_cond $X=7.725 $Y=2.405
+ $X2=4.07 $Y2=2.405
r231 53 73 3.90229 $w=1.7e-07 $l=1.65e-07 $layer=LI1_cond $X=3.255 $Y=2.25
+ $X2=3.09 $Y2=2.25
r232 52 74 0.716491 $w=1.7e-07 $l=8.5e-08 $layer=LI1_cond $X=3.9 $Y=2.25
+ $X2=3.985 $Y2=2.25
r233 52 53 42.0802 $w=1.68e-07 $l=6.45e-07 $layer=LI1_cond $X=3.9 $Y=2.25
+ $X2=3.255 $Y2=2.25
r234 51 69 4.60183 $w=1.95e-07 $l=8.5e-08 $layer=LI1_cond $X=2.67 $Y=2.015
+ $X2=2.585 $Y2=2.015
r235 50 70 2.3974 $w=2.2e-07 $l=1.65e-07 $layer=LI1_cond $X=2.925 $Y=2.015
+ $X2=3.09 $Y2=2.015
r236 50 51 13.3579 $w=2.18e-07 $l=2.55e-07 $layer=LI1_cond $X=2.925 $Y=2.015
+ $X2=2.67 $Y2=2.015
r237 49 69 1.84097 $w=1.7e-07 $l=1.1e-07 $layer=LI1_cond $X=2.585 $Y=1.905
+ $X2=2.585 $Y2=2.015
r238 49 68 40.4492 $w=1.68e-07 $l=6.2e-07 $layer=LI1_cond $X=2.585 $Y=1.905
+ $X2=2.585 $Y2=1.285
r239 44 68 8.46218 $w=3.28e-07 $l=1.65e-07 $layer=LI1_cond $X=2.505 $Y=1.12
+ $X2=2.505 $Y2=1.285
r240 44 46 12.2229 $w=3.28e-07 $l=3.5e-07 $layer=LI1_cond $X=2.505 $Y=1.12
+ $X2=2.505 $Y2=0.77
r241 43 67 4.57959 $w=1.7e-07 $l=1.4e-07 $layer=LI1_cond $X=1.735 $Y=2.04
+ $X2=1.595 $Y2=2.04
r242 42 69 4.60183 $w=1.95e-07 $l=9.66954e-08 $layer=LI1_cond $X=2.5 $Y=2.04
+ $X2=2.585 $Y2=2.015
r243 42 43 49.9091 $w=1.68e-07 $l=7.65e-07 $layer=LI1_cond $X=2.5 $Y=2.04
+ $X2=1.735 $Y2=2.04
r244 37 87 25.8619 $w=1.5e-07 $l=2.23e-07 $layer=POLY_cond $X=9.575 $Y=1.765
+ $X2=9.575 $Y2=1.542
r245 37 39 204.047 $w=1.5e-07 $l=6.35e-07 $layer=POLY_cond $X=9.575 $Y=1.765
+ $X2=9.575 $Y2=2.4
r246 33 85 25.8619 $w=1.5e-07 $l=2.22e-07 $layer=POLY_cond $X=9.505 $Y=1.32
+ $X2=9.505 $Y2=1.542
r247 33 35 297.404 $w=1.5e-07 $l=5.8e-07 $layer=POLY_cond $X=9.505 $Y=1.32
+ $X2=9.505 $Y2=0.74
r248 32 84 10.5016 $w=3.84e-07 $l=9.94987e-08 $layer=POLY_cond $X=9.025 $Y=1.485
+ $X2=8.95 $Y2=1.542
r249 31 85 10.6563 $w=4e-07 $l=9.94987e-08 $layer=POLY_cond $X=9.43 $Y=1.485
+ $X2=9.505 $Y2=1.542
r250 31 32 70.8188 $w=3.3e-07 $l=4.05e-07 $layer=POLY_cond $X=9.43 $Y=1.485
+ $X2=9.025 $Y2=1.485
r251 27 84 24.8669 $w=1.5e-07 $l=2.22e-07 $layer=POLY_cond $X=8.95 $Y=1.32
+ $X2=8.95 $Y2=1.542
r252 27 29 297.404 $w=1.5e-07 $l=5.8e-07 $layer=POLY_cond $X=8.95 $Y=1.32
+ $X2=8.95 $Y2=0.74
r253 24 83 24.8669 $w=1.5e-07 $l=2.23e-07 $layer=POLY_cond $X=8.865 $Y=1.765
+ $X2=8.865 $Y2=1.542
r254 24 26 204.047 $w=1.5e-07 $l=6.35e-07 $layer=POLY_cond $X=8.865 $Y=1.765
+ $X2=8.865 $Y2=2.4
r255 20 82 24.8669 $w=1.5e-07 $l=2.22e-07 $layer=POLY_cond $X=8.45 $Y=1.32
+ $X2=8.45 $Y2=1.542
r256 20 22 297.404 $w=1.5e-07 $l=5.8e-07 $layer=POLY_cond $X=8.45 $Y=1.32
+ $X2=8.45 $Y2=0.74
r257 17 81 24.8669 $w=1.5e-07 $l=2.23e-07 $layer=POLY_cond $X=8.415 $Y=1.765
+ $X2=8.415 $Y2=1.542
r258 17 19 204.047 $w=1.5e-07 $l=6.35e-07 $layer=POLY_cond $X=8.415 $Y=1.765
+ $X2=8.415 $Y2=2.4
r259 13 79 24.8669 $w=1.5e-07 $l=2.22e-07 $layer=POLY_cond $X=8.02 $Y=1.32
+ $X2=8.02 $Y2=1.542
r260 13 15 297.404 $w=1.5e-07 $l=5.8e-07 $layer=POLY_cond $X=8.02 $Y=1.32
+ $X2=8.02 $Y2=0.74
r261 10 78 24.8669 $w=1.5e-07 $l=2.23e-07 $layer=POLY_cond $X=7.965 $Y=1.765
+ $X2=7.965 $Y2=1.542
r262 10 12 204.047 $w=1.5e-07 $l=6.35e-07 $layer=POLY_cond $X=7.965 $Y=1.765
+ $X2=7.965 $Y2=2.4
r263 3 72 600 $w=1.7e-07 $l=2.38485e-07 $layer=licon1_PDIFF $count=1 $X=2.94
+ $Y=1.895 $X2=3.09 $Y2=2.07
r264 2 67 300 $w=1.7e-07 $l=2.22711e-07 $layer=licon1_PDIFF $count=2 $X=1.47
+ $Y=1.96 $X2=1.62 $Y2=2.12
r265 1 46 91 $w=1.7e-07 $l=2.41868e-07 $layer=licon1_NDIFF $count=2 $X=2.325
+ $Y=0.625 $X2=2.505 $Y2=0.77
.ends

.subckt PM_SKY130_FD_SC_HS__HA_4%A_27_392# 1 2 3 10 12 14 16 19 20 21 24
c44 21 0 1.02086e-19 $X=1.255 $Y=2.99
c45 12 0 1.10921e-19 $X=0.27 $Y=2.8
r46 22 24 18.3343 $w=3.28e-07 $l=5.25e-07 $layer=LI1_cond $X=2.07 $Y=2.905
+ $X2=2.07 $Y2=2.38
r47 20 22 7.76618 $w=1.7e-07 $l=2.03101e-07 $layer=LI1_cond $X=1.905 $Y=2.99
+ $X2=2.07 $Y2=2.905
r48 20 21 42.4064 $w=1.68e-07 $l=6.5e-07 $layer=LI1_cond $X=1.905 $Y=2.99
+ $X2=1.255 $Y2=2.99
r49 17 21 7.14316 $w=1.7e-07 $l=1.62019e-07 $layer=LI1_cond $X=1.13 $Y=2.905
+ $X2=1.255 $Y2=2.99
r50 17 19 4.14879 $w=2.48e-07 $l=9e-08 $layer=LI1_cond $X=1.13 $Y=2.905 $X2=1.13
+ $Y2=2.815
r51 16 29 2.89128 $w=2.5e-07 $l=8.5e-08 $layer=LI1_cond $X=1.13 $Y=2.125
+ $X2=1.13 $Y2=2.04
r52 16 19 31.8074 $w=2.48e-07 $l=6.9e-07 $layer=LI1_cond $X=1.13 $Y=2.125
+ $X2=1.13 $Y2=2.815
r53 15 27 4.57959 $w=1.7e-07 $l=1.4e-07 $layer=LI1_cond $X=0.385 $Y=2.04
+ $X2=0.245 $Y2=2.04
r54 14 29 4.25188 $w=1.7e-07 $l=1.25e-07 $layer=LI1_cond $X=1.005 $Y=2.04
+ $X2=1.13 $Y2=2.04
r55 14 15 40.4492 $w=1.68e-07 $l=6.2e-07 $layer=LI1_cond $X=1.005 $Y=2.04
+ $X2=0.385 $Y2=2.04
r56 10 27 2.78046 $w=2.8e-07 $l=8.5e-08 $layer=LI1_cond $X=0.245 $Y=2.125
+ $X2=0.245 $Y2=2.04
r57 10 12 27.7821 $w=2.78e-07 $l=6.75e-07 $layer=LI1_cond $X=0.245 $Y=2.125
+ $X2=0.245 $Y2=2.8
r58 3 24 300 $w=1.7e-07 $l=4.89285e-07 $layer=licon1_PDIFF $count=2 $X=1.92
+ $Y=1.96 $X2=2.07 $Y2=2.38
r59 2 29 400 $w=1.7e-07 $l=2.22711e-07 $layer=licon1_PDIFF $count=1 $X=1.02
+ $Y=1.96 $X2=1.17 $Y2=2.12
r60 2 19 400 $w=1.7e-07 $l=9.26971e-07 $layer=licon1_PDIFF $count=1 $X=1.02
+ $Y=1.96 $X2=1.17 $Y2=2.815
r61 1 27 400 $w=1.7e-07 $l=2.17256e-07 $layer=licon1_PDIFF $count=1 $X=0.135
+ $Y=1.96 $X2=0.27 $Y2=2.12
r62 1 12 400 $w=1.7e-07 $l=9.04986e-07 $layer=licon1_PDIFF $count=1 $X=0.135
+ $Y=1.96 $X2=0.27 $Y2=2.8
.ends

.subckt PM_SKY130_FD_SC_HS__HA_4%VPWR 1 2 3 4 5 6 7 8 9 30 34 38 42 44 48 52 56
+ 60 62 64 67 68 70 71 73 74 75 77 82 90 95 110 115 118 121 124 127 131
c157 34 0 7.21125e-20 $X=2.64 $Y=2.57
c158 2 0 1.0136e-19 $X=2.505 $Y=1.895
r159 130 131 9.3 $w=1.7e-07 $l=1.7e-07 $layer=mcon $count=1 $X=9.84 $Y=3.33
+ $X2=9.84 $Y2=3.33
r160 127 128 4.65 $w=1.7e-07 $l=3.4e-07 $layer=mcon $count=2 $X=5.52 $Y=3.33
+ $X2=5.52 $Y2=3.33
r161 124 125 9.3 $w=1.7e-07 $l=1.7e-07 $layer=mcon $count=1 $X=4.56 $Y=3.33
+ $X2=4.56 $Y2=3.33
r162 121 122 9.3 $w=1.7e-07 $l=1.7e-07 $layer=mcon $count=1 $X=3.6 $Y=3.33
+ $X2=3.6 $Y2=3.33
r163 118 119 9.3 $w=1.7e-07 $l=1.7e-07 $layer=mcon $count=1 $X=2.64 $Y=3.33
+ $X2=2.64 $Y2=3.33
r164 115 116 9.3 $w=1.7e-07 $l=1.7e-07 $layer=mcon $count=1 $X=0.72 $Y=3.33
+ $X2=0.72 $Y2=3.33
r165 113 131 0.133793 $w=4.9e-07 $l=4.8e-07 $layer=MET1_cond $X=9.36 $Y=3.33
+ $X2=9.84 $Y2=3.33
r166 112 113 4.65 $w=1.7e-07 $l=3.4e-07 $layer=mcon $count=2 $X=9.36 $Y=3.33
+ $X2=9.36 $Y2=3.33
r167 110 130 4.73651 $w=1.7e-07 $l=2.22e-07 $layer=LI1_cond $X=9.635 $Y=3.33
+ $X2=9.857 $Y2=3.33
r168 110 112 17.9412 $w=1.68e-07 $l=2.75e-07 $layer=LI1_cond $X=9.635 $Y=3.33
+ $X2=9.36 $Y2=3.33
r169 109 113 0.267585 $w=4.9e-07 $l=9.6e-07 $layer=MET1_cond $X=8.4 $Y=3.33
+ $X2=9.36 $Y2=3.33
r170 108 109 4.65 $w=1.7e-07 $l=3.4e-07 $layer=mcon $count=2 $X=8.4 $Y=3.33
+ $X2=8.4 $Y2=3.33
r171 106 109 0.267585 $w=4.9e-07 $l=9.6e-07 $layer=MET1_cond $X=7.44 $Y=3.33
+ $X2=8.4 $Y2=3.33
r172 105 106 4.65 $w=1.7e-07 $l=3.4e-07 $layer=mcon $count=2 $X=7.44 $Y=3.33
+ $X2=7.44 $Y2=3.33
r173 103 106 0.267585 $w=4.9e-07 $l=9.6e-07 $layer=MET1_cond $X=6.48 $Y=3.33
+ $X2=7.44 $Y2=3.33
r174 103 128 0.267585 $w=4.9e-07 $l=9.6e-07 $layer=MET1_cond $X=6.48 $Y=3.33
+ $X2=5.52 $Y2=3.33
r175 102 103 4.65 $w=1.7e-07 $l=3.4e-07 $layer=mcon $count=2 $X=6.48 $Y=3.33
+ $X2=6.48 $Y2=3.33
r176 100 127 10.6558 $w=1.7e-07 $l=2.28e-07 $layer=LI1_cond $X=5.945 $Y=3.33
+ $X2=5.717 $Y2=3.33
r177 100 102 34.9037 $w=1.68e-07 $l=5.35e-07 $layer=LI1_cond $X=5.945 $Y=3.33
+ $X2=6.48 $Y2=3.33
r178 99 125 0.133793 $w=4.9e-07 $l=4.8e-07 $layer=MET1_cond $X=4.08 $Y=3.33
+ $X2=4.56 $Y2=3.33
r179 99 122 0.133793 $w=4.9e-07 $l=4.8e-07 $layer=MET1_cond $X=4.08 $Y=3.33
+ $X2=3.6 $Y2=3.33
r180 98 99 9.3 $w=1.7e-07 $l=1.7e-07 $layer=mcon $count=1 $X=4.08 $Y=3.33
+ $X2=4.08 $Y2=3.33
r181 96 121 8.61065 $w=1.7e-07 $l=1.65e-07 $layer=LI1_cond $X=3.705 $Y=3.33
+ $X2=3.54 $Y2=3.33
r182 96 98 24.4652 $w=1.68e-07 $l=3.75e-07 $layer=LI1_cond $X=3.705 $Y=3.33
+ $X2=4.08 $Y2=3.33
r183 95 124 8.61065 $w=1.7e-07 $l=1.65e-07 $layer=LI1_cond $X=4.43 $Y=3.33
+ $X2=4.595 $Y2=3.33
r184 95 98 22.8342 $w=1.68e-07 $l=3.5e-07 $layer=LI1_cond $X=4.43 $Y=3.33
+ $X2=4.08 $Y2=3.33
r185 94 122 0.133793 $w=4.9e-07 $l=4.8e-07 $layer=MET1_cond $X=3.12 $Y=3.33
+ $X2=3.6 $Y2=3.33
r186 94 119 0.133793 $w=4.9e-07 $l=4.8e-07 $layer=MET1_cond $X=3.12 $Y=3.33
+ $X2=2.64 $Y2=3.33
r187 93 94 9.3 $w=1.7e-07 $l=1.7e-07 $layer=mcon $count=1 $X=3.12 $Y=3.33
+ $X2=3.12 $Y2=3.33
r188 91 118 8.61065 $w=1.7e-07 $l=1.65e-07 $layer=LI1_cond $X=2.805 $Y=3.33
+ $X2=2.64 $Y2=3.33
r189 91 93 20.5508 $w=1.68e-07 $l=3.15e-07 $layer=LI1_cond $X=2.805 $Y=3.33
+ $X2=3.12 $Y2=3.33
r190 90 121 8.61065 $w=1.7e-07 $l=1.65e-07 $layer=LI1_cond $X=3.375 $Y=3.33
+ $X2=3.54 $Y2=3.33
r191 90 93 16.6364 $w=1.68e-07 $l=2.55e-07 $layer=LI1_cond $X=3.375 $Y=3.33
+ $X2=3.12 $Y2=3.33
r192 89 119 0.133793 $w=4.9e-07 $l=4.8e-07 $layer=MET1_cond $X=2.16 $Y=3.33
+ $X2=2.64 $Y2=3.33
r193 88 89 6.2 $w=1.7e-07 $l=2.55e-07 $layer=mcon $count=1 $X=2.16 $Y=3.33
+ $X2=2.16 $Y2=3.33
r194 86 89 0.267585 $w=4.9e-07 $l=9.6e-07 $layer=MET1_cond $X=1.2 $Y=3.33
+ $X2=2.16 $Y2=3.33
r195 86 116 0.133793 $w=4.9e-07 $l=4.8e-07 $layer=MET1_cond $X=1.2 $Y=3.33
+ $X2=0.72 $Y2=3.33
r196 85 88 62.631 $w=1.68e-07 $l=9.6e-07 $layer=LI1_cond $X=1.2 $Y=3.33 $X2=2.16
+ $Y2=3.33
r197 85 86 6.2 $w=1.7e-07 $l=2.55e-07 $layer=mcon $count=1 $X=1.2 $Y=3.33
+ $X2=1.2 $Y2=3.33
r198 83 115 7.02821 $w=1.7e-07 $l=1.25e-07 $layer=LI1_cond $X=0.805 $Y=3.33
+ $X2=0.68 $Y2=3.33
r199 83 85 25.7701 $w=1.68e-07 $l=3.95e-07 $layer=LI1_cond $X=0.805 $Y=3.33
+ $X2=1.2 $Y2=3.33
r200 82 118 8.61065 $w=1.7e-07 $l=1.65e-07 $layer=LI1_cond $X=2.475 $Y=3.33
+ $X2=2.64 $Y2=3.33
r201 82 88 20.5508 $w=1.68e-07 $l=3.15e-07 $layer=LI1_cond $X=2.475 $Y=3.33
+ $X2=2.16 $Y2=3.33
r202 80 116 0.133793 $w=4.9e-07 $l=4.8e-07 $layer=MET1_cond $X=0.24 $Y=3.33
+ $X2=0.72 $Y2=3.33
r203 79 80 9.3 $w=1.7e-07 $l=1.7e-07 $layer=mcon $count=1 $X=0.24 $Y=3.33
+ $X2=0.24 $Y2=3.33
r204 77 115 7.02821 $w=1.7e-07 $l=1.25e-07 $layer=LI1_cond $X=0.555 $Y=3.33
+ $X2=0.68 $Y2=3.33
r205 77 79 20.5508 $w=1.68e-07 $l=3.15e-07 $layer=LI1_cond $X=0.555 $Y=3.33
+ $X2=0.24 $Y2=3.33
r206 75 128 0.133793 $w=4.9e-07 $l=4.8e-07 $layer=MET1_cond $X=5.04 $Y=3.33
+ $X2=5.52 $Y2=3.33
r207 75 125 0.133793 $w=4.9e-07 $l=4.8e-07 $layer=MET1_cond $X=5.04 $Y=3.33
+ $X2=4.56 $Y2=3.33
r208 73 108 4.89305 $w=1.68e-07 $l=7.5e-08 $layer=LI1_cond $X=8.475 $Y=3.33
+ $X2=8.4 $Y2=3.33
r209 73 74 8.61065 $w=1.7e-07 $l=1.65e-07 $layer=LI1_cond $X=8.475 $Y=3.33
+ $X2=8.64 $Y2=3.33
r210 72 112 36.2086 $w=1.68e-07 $l=5.55e-07 $layer=LI1_cond $X=8.805 $Y=3.33
+ $X2=9.36 $Y2=3.33
r211 72 74 8.61065 $w=1.7e-07 $l=1.65e-07 $layer=LI1_cond $X=8.805 $Y=3.33
+ $X2=8.64 $Y2=3.33
r212 70 105 8.80749 $w=1.68e-07 $l=1.35e-07 $layer=LI1_cond $X=7.575 $Y=3.33
+ $X2=7.44 $Y2=3.33
r213 70 71 8.61065 $w=1.7e-07 $l=1.65e-07 $layer=LI1_cond $X=7.575 $Y=3.33
+ $X2=7.74 $Y2=3.33
r214 69 108 32.2941 $w=1.68e-07 $l=4.95e-07 $layer=LI1_cond $X=7.905 $Y=3.33
+ $X2=8.4 $Y2=3.33
r215 69 71 8.61065 $w=1.7e-07 $l=1.65e-07 $layer=LI1_cond $X=7.905 $Y=3.33
+ $X2=7.74 $Y2=3.33
r216 67 102 12.7219 $w=1.68e-07 $l=1.95e-07 $layer=LI1_cond $X=6.675 $Y=3.33
+ $X2=6.48 $Y2=3.33
r217 67 68 8.61065 $w=1.7e-07 $l=1.65e-07 $layer=LI1_cond $X=6.675 $Y=3.33
+ $X2=6.84 $Y2=3.33
r218 66 105 28.3797 $w=1.68e-07 $l=4.35e-07 $layer=LI1_cond $X=7.005 $Y=3.33
+ $X2=7.44 $Y2=3.33
r219 66 68 8.61065 $w=1.7e-07 $l=1.65e-07 $layer=LI1_cond $X=7.005 $Y=3.33
+ $X2=6.84 $Y2=3.33
r220 62 130 3.02966 $w=3.3e-07 $l=1.09864e-07 $layer=LI1_cond $X=9.8 $Y=3.245
+ $X2=9.857 $Y2=3.33
r221 62 64 28.9857 $w=3.28e-07 $l=8.3e-07 $layer=LI1_cond $X=9.8 $Y=3.245
+ $X2=9.8 $Y2=2.415
r222 58 74 0.89609 $w=3.3e-07 $l=8.5e-08 $layer=LI1_cond $X=8.64 $Y=3.245
+ $X2=8.64 $Y2=3.33
r223 58 60 29.3349 $w=3.28e-07 $l=8.4e-07 $layer=LI1_cond $X=8.64 $Y=3.245
+ $X2=8.64 $Y2=2.405
r224 54 71 0.89609 $w=3.3e-07 $l=8.5e-08 $layer=LI1_cond $X=7.74 $Y=3.245
+ $X2=7.74 $Y2=3.33
r225 54 56 16.239 $w=3.28e-07 $l=4.65e-07 $layer=LI1_cond $X=7.74 $Y=3.245
+ $X2=7.74 $Y2=2.78
r226 50 68 0.89609 $w=3.3e-07 $l=8.5e-08 $layer=LI1_cond $X=6.84 $Y=3.245
+ $X2=6.84 $Y2=3.33
r227 50 52 16.239 $w=3.28e-07 $l=4.65e-07 $layer=LI1_cond $X=6.84 $Y=3.245
+ $X2=6.84 $Y2=2.78
r228 46 127 1.82608 $w=4.55e-07 $l=8.5e-08 $layer=LI1_cond $X=5.717 $Y=3.245
+ $X2=5.717 $Y2=3.33
r229 46 48 13.1437 $w=4.53e-07 $l=5e-07 $layer=LI1_cond $X=5.717 $Y=3.245
+ $X2=5.717 $Y2=2.745
r230 45 124 8.61065 $w=1.7e-07 $l=1.65e-07 $layer=LI1_cond $X=4.76 $Y=3.33
+ $X2=4.595 $Y2=3.33
r231 44 127 10.6558 $w=1.7e-07 $l=2.27e-07 $layer=LI1_cond $X=5.49 $Y=3.33
+ $X2=5.717 $Y2=3.33
r232 44 45 47.6257 $w=1.68e-07 $l=7.3e-07 $layer=LI1_cond $X=5.49 $Y=3.33
+ $X2=4.76 $Y2=3.33
r233 40 124 0.89609 $w=3.3e-07 $l=8.5e-08 $layer=LI1_cond $X=4.595 $Y=3.245
+ $X2=4.595 $Y2=3.33
r234 40 42 17.4613 $w=3.28e-07 $l=5e-07 $layer=LI1_cond $X=4.595 $Y=3.245
+ $X2=4.595 $Y2=2.745
r235 36 121 0.89609 $w=3.3e-07 $l=8.5e-08 $layer=LI1_cond $X=3.54 $Y=3.245
+ $X2=3.54 $Y2=3.33
r236 36 38 22.8742 $w=3.28e-07 $l=6.55e-07 $layer=LI1_cond $X=3.54 $Y=3.245
+ $X2=3.54 $Y2=2.59
r237 32 118 0.89609 $w=3.3e-07 $l=8.5e-08 $layer=LI1_cond $X=2.64 $Y=3.245
+ $X2=2.64 $Y2=3.33
r238 32 34 23.5727 $w=3.28e-07 $l=6.75e-07 $layer=LI1_cond $X=2.64 $Y=3.245
+ $X2=2.64 $Y2=2.57
r239 28 115 0.00168595 $w=2.5e-07 $l=8.5e-08 $layer=LI1_cond $X=0.68 $Y=3.245
+ $X2=0.68 $Y2=3.33
r240 28 30 36.1867 $w=2.48e-07 $l=7.85e-07 $layer=LI1_cond $X=0.68 $Y=3.245
+ $X2=0.68 $Y2=2.46
r241 9 64 300 $w=1.7e-07 $l=6.45659e-07 $layer=licon1_PDIFF $count=2 $X=9.65
+ $Y=1.84 $X2=9.8 $Y2=2.415
r242 8 60 300 $w=1.7e-07 $l=6.3559e-07 $layer=licon1_PDIFF $count=2 $X=8.49
+ $Y=1.84 $X2=8.64 $Y2=2.405
r243 7 56 600 $w=1.7e-07 $l=1.01223e-06 $layer=licon1_PDIFF $count=1 $X=7.59
+ $Y=1.84 $X2=7.74 $Y2=2.78
r244 6 52 600 $w=1.7e-07 $l=1.01223e-06 $layer=licon1_PDIFF $count=1 $X=6.69
+ $Y=1.84 $X2=6.84 $Y2=2.78
r245 5 48 600 $w=1.7e-07 $l=1.04211e-06 $layer=licon1_PDIFF $count=1 $X=5.42
+ $Y=1.84 $X2=5.715 $Y2=2.745
r246 4 42 600 $w=1.7e-07 $l=7.66339e-07 $layer=licon1_PDIFF $count=1 $X=4.445
+ $Y=2.05 $X2=4.595 $Y2=2.745
r247 3 38 600 $w=1.7e-07 $l=7.66339e-07 $layer=licon1_PDIFF $count=1 $X=3.39
+ $Y=1.895 $X2=3.54 $Y2=2.59
r248 2 34 600 $w=1.7e-07 $l=7.39425e-07 $layer=licon1_PDIFF $count=1 $X=2.505
+ $Y=1.895 $X2=2.64 $Y2=2.57
r249 1 30 300 $w=1.7e-07 $l=5.70088e-07 $layer=licon1_PDIFF $count=2 $X=0.57