* File: sky130_fd_sc_hs__fah_2.pex.spice
* Created: Tue Sep  1 20:05:45 2020
* Program "Calibre xRC"
* Version "v2018.4_34.26"
* Nominal Temperature: 27C
* Circuit Temperature: 27C
* 
.subckt PM_SKY130_FD_SC_HS__FAH_2%A_81_260# 1 2 7 9 12 18 23 26 29 32
c58 29 0 1.98792e-19 $X=1.31 $Y=1.465
c59 7 0 1.11723e-19 $X=0.495 $Y=1.765
r60 32 34 16.3735 $w=4.78e-07 $l=4.45e-07 $layer=LI1_cond $X=1.465 $Y=0.675
+ $X2=1.465 $Y2=1.12
r61 28 29 3.31764 $w=3.28e-07 $l=9.5e-08 $layer=LI1_cond $X=1.215 $Y=1.465
+ $X2=1.31 $Y2=1.465
r62 25 28 8.03218 $w=3.28e-07 $l=2.3e-07 $layer=LI1_cond $X=0.985 $Y=1.465
+ $X2=1.215 $Y2=1.465
r63 25 26 145.28 $w=1.7e-07 $l=1.7e-07 $layer=licon1_POLY $count=1 $X=0.985
+ $Y=1.465 $X2=0.985 $Y2=1.465
r64 23 29 4.62375 $w=1.7e-07 $l=1.65e-07 $layer=LI1_cond $X=1.31 $Y=1.3 $X2=1.31
+ $Y2=1.465
r65 23 34 11.7433 $w=1.68e-07 $l=1.8e-07 $layer=LI1_cond $X=1.31 $Y=1.3 $X2=1.31
+ $Y2=1.12
r66 18 20 32.7294 $w=2.48e-07 $l=7.1e-07 $layer=LI1_cond $X=1.215 $Y=2.105
+ $X2=1.215 $Y2=2.815
r67 16 28 2.36532 $w=2.5e-07 $l=1.65e-07 $layer=LI1_cond $X=1.215 $Y=1.63
+ $X2=1.215 $Y2=1.465
r68 16 18 21.8964 $w=2.48e-07 $l=4.75e-07 $layer=LI1_cond $X=1.215 $Y=1.63
+ $X2=1.215 $Y2=2.105
r69 15 26 56.8299 $w=3.3e-07 $l=3.25e-07 $layer=POLY_cond $X=0.66 $Y=1.465
+ $X2=0.985 $Y2=1.465
r70 10 15 40.2336 $w=2.33e-07 $l=1.89658e-07 $layer=POLY_cond $X=0.585 $Y=1.3
+ $X2=0.532 $Y2=1.465
r71 10 12 287.149 $w=1.5e-07 $l=5.6e-07 $layer=POLY_cond $X=0.585 $Y=1.3
+ $X2=0.585 $Y2=0.74
r72 7 15 68.1606 $w=2.33e-07 $l=3.17962e-07 $layer=POLY_cond $X=0.495 $Y=1.765
+ $X2=0.532 $Y2=1.465
r73 7 9 204.047 $w=1.5e-07 $l=6.35e-07 $layer=POLY_cond $X=0.495 $Y=1.765
+ $X2=0.495 $Y2=2.4
r74 2 20 400 $w=1.7e-07 $l=9.20027e-07 $layer=licon1_PDIFF $count=1 $X=1.12
+ $Y=1.96 $X2=1.255 $Y2=2.815
r75 2 18 400 $w=1.7e-07 $l=2.01494e-07 $layer=licon1_PDIFF $count=1 $X=1.12
+ $Y=1.96 $X2=1.255 $Y2=2.105
r76 1 32 91 $w=1.7e-07 $l=2.10357e-07 $layer=licon1_NDIFF $count=2 $X=1.395
+ $Y=0.525 $X2=1.54 $Y2=0.675
.ends

.subckt PM_SKY130_FD_SC_HS__FAH_2%A 2 3 5 6 8 10 11 13 14 16 17 24 26
c65 11 0 2.00363e-19 $X=1.99 $Y=1.885
c66 10 0 4.97865e-21 $X=1.99 $Y=1.795
c67 6 0 2.24154e-20 $X=1.825 $Y=1.29
c68 3 0 8.47849e-20 $X=1.48 $Y=1.885
r69 25 26 46.3382 $w=3.3e-07 $l=2.65e-07 $layer=POLY_cond $X=1.99 $Y=1.455
+ $X2=2.255 $Y2=1.455
r70 23 25 13.1146 $w=3.3e-07 $l=7.5e-08 $layer=POLY_cond $X=1.915 $Y=1.455
+ $X2=1.99 $Y2=1.455
r71 23 24 145.28 $w=1.7e-07 $l=1.7e-07 $layer=licon1_POLY $count=1 $X=1.915
+ $Y=1.455 $X2=1.915 $Y2=1.455
r72 21 23 15.7375 $w=3.3e-07 $l=9e-08 $layer=POLY_cond $X=1.825 $Y=1.455
+ $X2=1.915 $Y2=1.455
r73 19 21 60.3271 $w=3.3e-07 $l=3.45e-07 $layer=POLY_cond $X=1.48 $Y=1.455
+ $X2=1.825 $Y2=1.455
r74 17 24 5.73629 $w=4.88e-07 $l=2.35e-07 $layer=LI1_cond $X=1.68 $Y=1.535
+ $X2=1.915 $Y2=1.535
r75 14 26 21.2229 $w=1.5e-07 $l=1.65e-07 $layer=POLY_cond $X=2.255 $Y=1.29
+ $X2=2.255 $Y2=1.455
r76 14 16 142.993 $w=1.5e-07 $l=4.45e-07 $layer=POLY_cond $X=2.255 $Y=1.29
+ $X2=2.255 $Y2=0.845
r77 11 13 184.767 $w=1.5e-07 $l=5.75e-07 $layer=POLY_cond $X=1.99 $Y=1.885
+ $X2=1.99 $Y2=2.46
r78 10 11 36.0588 $w=1.8e-07 $l=9e-08 $layer=POLY_cond $X=1.99 $Y=1.795 $X2=1.99
+ $Y2=1.885
r79 9 25 16.9318 $w=1.8e-07 $l=1.65e-07 $layer=POLY_cond $X=1.99 $Y=1.62
+ $X2=1.99 $Y2=1.455
r80 9 10 68.0242 $w=1.8e-07 $l=1.75e-07 $layer=POLY_cond $X=1.99 $Y=1.62
+ $X2=1.99 $Y2=1.795
r81 6 21 21.2229 $w=1.5e-07 $l=1.65e-07 $layer=POLY_cond $X=1.825 $Y=1.29
+ $X2=1.825 $Y2=1.455
r82 6 8 142.993 $w=1.5e-07 $l=4.45e-07 $layer=POLY_cond $X=1.825 $Y=1.29
+ $X2=1.825 $Y2=0.845
r83 3 5 184.767 $w=1.5e-07 $l=5.75e-07 $layer=POLY_cond $X=1.48 $Y=1.885
+ $X2=1.48 $Y2=2.46
r84 2 3 36.0588 $w=1.8e-07 $l=9e-08 $layer=POLY_cond $X=1.48 $Y=1.795 $X2=1.48
+ $Y2=1.885
r85 1 19 16.9318 $w=1.8e-07 $l=1.65e-07 $layer=POLY_cond $X=1.48 $Y=1.62
+ $X2=1.48 $Y2=1.455
r86 1 2 68.0242 $w=1.8e-07 $l=1.75e-07 $layer=POLY_cond $X=1.48 $Y=1.62 $X2=1.48
+ $Y2=1.795
.ends

.subckt PM_SKY130_FD_SC_HS__FAH_2%B 3 5 7 10 11 13 14 16 17 18 21 25 26 29 33 34
+ 36 39 40 41 44 45 46 48 50 52 53 54 60 61 69
c210 60 0 4.57584e-20 $X=2.64 $Y=1.665
c211 53 0 1.90307e-19 $X=4.5 $Y=0.68
c212 41 0 1.42825e-19 $X=5.435 $Y=1.005
c213 40 0 5.25489e-20 $X=5.875 $Y=1.005
c214 33 0 3.17652e-19 $X=4.505 $Y=1.44
c215 21 0 9.95712e-20 $X=7.125 $Y=0.74
c216 18 0 9.54589e-20 $X=6.745 $Y=1.315
c217 17 0 1.97436e-19 $X=7.05 $Y=1.315
c218 14 0 1.04626e-19 $X=6.655 $Y=1.765
c219 5 0 1.75179e-20 $X=3.56 $Y=2.045
r220 60 61 12.5413 $w=3.38e-07 $l=3.7e-07 $layer=LI1_cond $X=2.725 $Y=1.665
+ $X2=2.725 $Y2=2.035
r221 58 73 53.1237 $w=5.58e-07 $l=6.15e-07 $layer=POLY_cond $X=6.04 $Y=1.482
+ $X2=6.655 $Y2=1.482
r222 57 58 145.28 $w=1.7e-07 $l=1.7e-07 $layer=licon1_POLY $count=1 $X=6.04
+ $Y=1.085 $X2=6.04 $Y2=1.085
r223 54 57 2.7938 $w=3.28e-07 $l=8e-08 $layer=LI1_cond $X=6.04 $Y=1.005 $X2=6.04
+ $Y2=1.085
r224 48 50 8.46218 $w=3.28e-07 $l=1.65e-07 $layer=LI1_cond $X=3.605 $Y=1.795
+ $X2=3.605 $Y2=1.63
r225 48 49 145.28 $w=1.7e-07 $l=1.7e-07 $layer=licon1_POLY $count=1 $X=3.605
+ $Y=1.795 $X2=3.605 $Y2=1.795
r226 45 65 46.2115 $w=3.3e-07 $l=1.65e-07 $layer=POLY_cond $X=2.705 $Y=1.52
+ $X2=2.705 $Y2=1.355
r227 44 46 8.47192 $w=3.38e-07 $l=1.65e-07 $layer=LI1_cond $X=2.725 $Y=1.52
+ $X2=2.725 $Y2=1.355
r228 44 45 145.28 $w=1.7e-07 $l=1.7e-07 $layer=licon1_POLY $count=1 $X=2.705
+ $Y=1.52 $X2=2.705 $Y2=1.52
r229 42 60 4.74535 $w=3.38e-07 $l=1.4e-07 $layer=LI1_cond $X=2.725 $Y=1.525
+ $X2=2.725 $Y2=1.665
r230 42 44 0.169477 $w=3.38e-07 $l=5e-09 $layer=LI1_cond $X=2.725 $Y=1.525
+ $X2=2.725 $Y2=1.52
r231 40 54 4.62375 $w=1.7e-07 $l=1.65e-07 $layer=LI1_cond $X=5.875 $Y=1.005
+ $X2=6.04 $Y2=1.005
r232 40 41 28.7059 $w=1.68e-07 $l=4.4e-07 $layer=LI1_cond $X=5.875 $Y=1.005
+ $X2=5.435 $Y2=1.005
r233 39 41 6.81649 $w=1.7e-07 $l=1.20208e-07 $layer=LI1_cond $X=5.35 $Y=0.92
+ $X2=5.435 $Y2=1.005
r234 38 39 10.1123 $w=1.68e-07 $l=1.55e-07 $layer=LI1_cond $X=5.35 $Y=0.765
+ $X2=5.35 $Y2=0.92
r235 37 53 5.66127 $w=1.7e-07 $l=9.5e-08 $layer=LI1_cond $X=4.595 $Y=0.68
+ $X2=4.5 $Y2=0.68
r236 36 38 6.81649 $w=1.7e-07 $l=1.20208e-07 $layer=LI1_cond $X=5.265 $Y=0.68
+ $X2=5.35 $Y2=0.765
r237 36 37 43.7112 $w=1.68e-07 $l=6.7e-07 $layer=LI1_cond $X=5.265 $Y=0.68
+ $X2=4.595 $Y2=0.68
r238 34 69 46.2115 $w=3.3e-07 $l=1.65e-07 $layer=POLY_cond $X=4.505 $Y=1.44
+ $X2=4.505 $Y2=1.275
r239 33 34 145.28 $w=1.7e-07 $l=1.7e-07 $layer=licon1_POLY $count=1 $X=4.505
+ $Y=1.44 $X2=4.505 $Y2=1.44
r240 31 53 0.945268 $w=1.9e-07 $l=8.5e-08 $layer=LI1_cond $X=4.5 $Y=0.765
+ $X2=4.5 $Y2=0.68
r241 31 33 39.4019 $w=1.88e-07 $l=6.75e-07 $layer=LI1_cond $X=4.5 $Y=0.765
+ $X2=4.5 $Y2=1.44
r242 30 52 5.16603 $w=1.7e-07 $l=8.5e-08 $layer=LI1_cond $X=3.735 $Y=0.68
+ $X2=3.65 $Y2=0.68
r243 29 53 5.66127 $w=1.7e-07 $l=9.5e-08 $layer=LI1_cond $X=4.405 $Y=0.68
+ $X2=4.5 $Y2=0.68
r244 29 30 43.7112 $w=1.68e-07 $l=6.7e-07 $layer=LI1_cond $X=4.405 $Y=0.68
+ $X2=3.735 $Y2=0.68
r245 27 52 1.34256 $w=1.7e-07 $l=8.5e-08 $layer=LI1_cond $X=3.65 $Y=0.765
+ $X2=3.65 $Y2=0.68
r246 27 50 56.4332 $w=1.68e-07 $l=8.65e-07 $layer=LI1_cond $X=3.65 $Y=0.765
+ $X2=3.65 $Y2=1.63
r247 25 52 5.16603 $w=1.7e-07 $l=8.5e-08 $layer=LI1_cond $X=3.565 $Y=0.68
+ $X2=3.65 $Y2=0.68
r248 25 26 43.7112 $w=1.68e-07 $l=6.7e-07 $layer=LI1_cond $X=3.565 $Y=0.68
+ $X2=2.895 $Y2=0.68
r249 23 26 6.81649 $w=1.7e-07 $l=1.20208e-07 $layer=LI1_cond $X=2.81 $Y=0.765
+ $X2=2.895 $Y2=0.68
r250 23 46 38.492 $w=1.68e-07 $l=5.9e-07 $layer=LI1_cond $X=2.81 $Y=0.765
+ $X2=2.81 $Y2=1.355
r251 19 21 256.383 $w=1.5e-07 $l=5e-07 $layer=POLY_cond $X=7.125 $Y=1.24
+ $X2=7.125 $Y2=0.74
r252 18 73 36.977 $w=5.58e-07 $l=2.07169e-07 $layer=POLY_cond $X=6.745 $Y=1.315
+ $X2=6.655 $Y2=1.482
r253 17 19 26.9307 $w=1.5e-07 $l=1.06066e-07 $layer=POLY_cond $X=7.05 $Y=1.315
+ $X2=7.125 $Y2=1.24
r254 17 18 156.394 $w=1.5e-07 $l=3.05e-07 $layer=POLY_cond $X=7.05 $Y=1.315
+ $X2=6.745 $Y2=1.315
r255 14 73 34.2028 $w=1.5e-07 $l=2.83e-07 $layer=POLY_cond $X=6.655 $Y=1.765
+ $X2=6.655 $Y2=1.482
r256 14 16 204.047 $w=1.5e-07 $l=6.35e-07 $layer=POLY_cond $X=6.655 $Y=1.765
+ $X2=6.655 $Y2=2.4
r257 11 58 32.3925 $w=5.58e-07 $l=7.26701e-07 $layer=POLY_cond $X=5.665 $Y=2.045
+ $X2=6.04 $Y2=1.482
r258 11 13 159.06 $w=1.5e-07 $l=4.95e-07 $layer=POLY_cond $X=5.665 $Y=2.045
+ $X2=5.665 $Y2=2.54
r259 10 69 138.173 $w=1.5e-07 $l=4.3e-07 $layer=POLY_cond $X=4.445 $Y=0.845
+ $X2=4.445 $Y2=1.275
r260 5 49 52.2586 $w=2.99e-07 $l=2.7157e-07 $layer=POLY_cond $X=3.56 $Y=2.045
+ $X2=3.605 $Y2=1.795
r261 5 7 159.06 $w=1.5e-07 $l=4.95e-07 $layer=POLY_cond $X=3.56 $Y=2.045
+ $X2=3.56 $Y2=2.54
r262 3 65 261.511 $w=1.5e-07 $l=5.1e-07 $layer=POLY_cond $X=2.685 $Y=0.845
+ $X2=2.685 $Y2=1.355
.ends

.subckt PM_SKY130_FD_SC_HS__FAH_2%A_481_379# 1 2 7 9 10 11 13 14 16 17 18 20 21
+ 23 24 25 28 34 35 37 40 41 43 46 47 55
c167 37 0 8.21497e-20 $X=6.715 $Y=1.845
c168 34 0 1.61089e-19 $X=5.2 $Y=1.42
c169 24 0 1.90025e-19 $X=5.035 $Y=1.92
c170 17 0 1.56563e-19 $X=3.98 $Y=1.315
r171 55 57 4.88915 $w=3.28e-07 $l=1.4e-07 $layer=LI1_cond $X=6.88 $Y=1.845
+ $X2=6.88 $Y2=1.985
r172 46 49 3.54598 $w=2.58e-07 $l=8e-08 $layer=LI1_cond $X=5.235 $Y=1.765
+ $X2=5.235 $Y2=1.845
r173 46 47 145.28 $w=1.7e-07 $l=1.7e-07 $layer=licon1_POLY $count=1 $X=5.2
+ $Y=1.765 $X2=5.2 $Y2=1.765
r174 41 43 13.7944 $w=3.28e-07 $l=3.95e-07 $layer=LI1_cond $X=7.34 $Y=1.19
+ $X2=7.34 $Y2=0.795
r175 40 55 2.96841 $w=3.28e-07 $l=8.5e-08 $layer=LI1_cond $X=6.88 $Y=1.76
+ $X2=6.88 $Y2=1.845
r176 39 41 30.0107 $w=1.68e-07 $l=4.6e-07 $layer=LI1_cond $X=6.88 $Y=1.275
+ $X2=7.34 $Y2=1.275
r177 39 40 13.969 $w=3.28e-07 $l=4e-07 $layer=LI1_cond $X=6.88 $Y=1.36 $X2=6.88
+ $Y2=1.76
r178 38 49 3.22376 $w=1.7e-07 $l=1.3e-07 $layer=LI1_cond $X=5.365 $Y=1.845
+ $X2=5.235 $Y2=1.845
r179 37 55 4.62375 $w=1.7e-07 $l=1.65e-07 $layer=LI1_cond $X=6.715 $Y=1.845
+ $X2=6.88 $Y2=1.845
r180 37 38 88.0749 $w=1.68e-07 $l=1.35e-06 $layer=LI1_cond $X=6.715 $Y=1.845
+ $X2=5.365 $Y2=1.845
r181 36 47 13.9889 $w=3.3e-07 $l=8e-08 $layer=POLY_cond $X=5.2 $Y=1.845 $X2=5.2
+ $Y2=1.765
r182 34 47 60.3271 $w=3.3e-07 $l=3.45e-07 $layer=POLY_cond $X=5.2 $Y=1.42
+ $X2=5.2 $Y2=1.765
r183 34 35 46.2115 $w=3.3e-07 $l=1.65e-07 $layer=POLY_cond $X=5.2 $Y=1.42
+ $X2=5.2 $Y2=1.255
r184 32 33 30.456 $w=1.82e-07 $l=1.15e-07 $layer=POLY_cond $X=4.055 $Y=1.945
+ $X2=4.17 $Y2=1.945
r185 29 31 148.702 $w=1.5e-07 $l=2.9e-07 $layer=POLY_cond $X=3.155 $Y=1.315
+ $X2=3.445 $Y2=1.315
r186 28 35 131.747 $w=1.5e-07 $l=4.1e-07 $layer=POLY_cond $X=5.29 $Y=0.845
+ $X2=5.29 $Y2=1.255
r187 25 33 25.4679 $w=1.82e-07 $l=1.01735e-07 $layer=POLY_cond $X=4.26 $Y=1.92
+ $X2=4.17 $Y2=1.945
r188 24 36 32.1775 $w=1.5e-07 $l=1.98997e-07 $layer=POLY_cond $X=5.035 $Y=1.92
+ $X2=5.2 $Y2=1.845
r189 24 25 397.394 $w=1.5e-07 $l=7.75e-07 $layer=POLY_cond $X=5.035 $Y=1.92
+ $X2=4.26 $Y2=1.92
r190 21 33 7.39479 $w=1.5e-07 $l=1e-07 $layer=POLY_cond $X=4.17 $Y=2.045
+ $X2=4.17 $Y2=1.945
r191 21 23 159.06 $w=1.5e-07 $l=4.95e-07 $layer=POLY_cond $X=4.17 $Y=2.045
+ $X2=4.17 $Y2=2.54
r192 20 32 7.39479 $w=1.5e-07 $l=1e-07 $layer=POLY_cond $X=4.055 $Y=1.845
+ $X2=4.055 $Y2=1.945
r193 19 20 233.309 $w=1.5e-07 $l=4.55e-07 $layer=POLY_cond $X=4.055 $Y=1.39
+ $X2=4.055 $Y2=1.845
r194 18 31 38.4574 $w=1.5e-07 $l=7.5e-08 $layer=POLY_cond $X=3.52 $Y=1.315
+ $X2=3.445 $Y2=1.315
r195 17 19 26.9307 $w=1.5e-07 $l=1.06066e-07 $layer=POLY_cond $X=3.98 $Y=1.315
+ $X2=4.055 $Y2=1.39
r196 17 18 235.872 $w=1.5e-07 $l=4.6e-07 $layer=POLY_cond $X=3.98 $Y=1.315
+ $X2=3.52 $Y2=1.315
r197 14 31 2.83073 $w=1.5e-07 $l=7.5e-08 $layer=POLY_cond $X=3.445 $Y=1.24
+ $X2=3.445 $Y2=1.315
r198 14 16 126.927 $w=1.5e-07 $l=3.95e-07 $layer=POLY_cond $X=3.445 $Y=1.24
+ $X2=3.445 $Y2=0.845
r199 12 29 2.83073 $w=1.5e-07 $l=7.5e-08 $layer=POLY_cond $X=3.155 $Y=1.39
+ $X2=3.155 $Y2=1.315
r200 12 13 258.947 $w=1.5e-07 $l=5.05e-07 $layer=POLY_cond $X=3.155 $Y=1.39
+ $X2=3.155 $Y2=1.895
r201 10 13 26.9307 $w=1.5e-07 $l=1.06066e-07 $layer=POLY_cond $X=3.08 $Y=1.97
+ $X2=3.155 $Y2=1.895
r202 10 11 261.511 $w=1.5e-07 $l=5.1e-07 $layer=POLY_cond $X=3.08 $Y=1.97
+ $X2=2.57 $Y2=1.97
r203 7 11 26.9307 $w=1.5e-07 $l=1.06066e-07 $layer=POLY_cond $X=2.495 $Y=2.045
+ $X2=2.57 $Y2=1.97
r204 7 9 159.06 $w=1.5e-07 $l=4.95e-07 $layer=POLY_cond $X=2.495 $Y=2.045
+ $X2=2.495 $Y2=2.54
r205 2 57 600 $w=1.7e-07 $l=2.10357e-07 $layer=licon1_PDIFF $count=1 $X=6.73
+ $Y=1.84 $X2=6.88 $Y2=1.985
r206 1 43 182 $w=1.7e-07 $l=4.90026e-07 $layer=licon1_NDIFF $count=1 $X=7.2
+ $Y=0.37 $X2=7.34 $Y2=0.795
.ends

.subckt PM_SKY130_FD_SC_HS__FAH_2%A_514_424# 1 2 7 9 12 14 16 19 21 26 27 30 31
+ 32 33 36 38 39 40 43 44 46 51 52 53 55 57 63 64 69 73 74 76 78 83 84
c246 69 0 2.00084e-19 $X=7.34 $Y=1.795
c247 44 0 3.062e-19 $X=8.575 $Y=1.39
c248 21 0 1.54605e-19 $X=3.065 $Y=2.555
c249 19 0 1.00227e-19 $X=10.285 $Y=0.715
r250 84 92 46.2115 $w=3.3e-07 $l=1.65e-07 $layer=POLY_cond $X=10.375 $Y=1.52
+ $X2=10.375 $Y2=1.355
r251 83 84 145.28 $w=1.7e-07 $l=1.7e-07 $layer=licon1_POLY $count=1 $X=10.375
+ $Y=1.52 $X2=10.375 $Y2=1.52
r252 80 83 7.15912 $w=3.28e-07 $l=2.05e-07 $layer=LI1_cond $X=10.17 $Y=1.52
+ $X2=10.375 $Y2=1.52
r253 76 79 8.46218 $w=3.28e-07 $l=1.65e-07 $layer=LI1_cond $X=9.41 $Y=1.795
+ $X2=9.41 $Y2=1.96
r254 76 78 8.46218 $w=3.28e-07 $l=1.65e-07 $layer=LI1_cond $X=9.41 $Y=1.795
+ $X2=9.41 $Y2=1.63
r255 76 77 145.28 $w=1.7e-07 $l=1.7e-07 $layer=licon1_POLY $count=1 $X=9.475
+ $Y=1.795 $X2=9.475 $Y2=1.795
r256 69 72 8.51388 $w=2.88e-07 $l=1.65e-07 $layer=LI1_cond $X=7.36 $Y=1.795
+ $X2=7.36 $Y2=1.96
r257 69 70 145.28 $w=1.7e-07 $l=1.7e-07 $layer=licon1_POLY $count=1 $X=7.34
+ $Y=1.795 $X2=7.34 $Y2=1.795
r258 64 66 9.13369 $w=1.68e-07 $l=1.4e-07 $layer=LI1_cond $X=6.31 $Y=2.185
+ $X2=6.31 $Y2=2.325
r259 62 63 8.46218 $w=3.28e-07 $l=1.65e-07 $layer=LI1_cond $X=3.285 $Y=2.555
+ $X2=3.45 $Y2=2.555
r260 60 62 4.71454 $w=3.28e-07 $l=1.35e-07 $layer=LI1_cond $X=3.15 $Y=2.555
+ $X2=3.285 $Y2=2.555
r261 57 59 8.46218 $w=3.28e-07 $l=1.65e-07 $layer=LI1_cond $X=3.23 $Y=1.02
+ $X2=3.23 $Y2=1.185
r262 55 80 4.62375 $w=1.7e-07 $l=1.65e-07 $layer=LI1_cond $X=10.17 $Y=1.355
+ $X2=10.17 $Y2=1.52
r263 54 55 38.492 $w=1.68e-07 $l=5.9e-07 $layer=LI1_cond $X=10.17 $Y=0.765
+ $X2=10.17 $Y2=1.355
r264 52 54 6.81649 $w=1.7e-07 $l=1.20208e-07 $layer=LI1_cond $X=10.085 $Y=0.68
+ $X2=10.17 $Y2=0.765
r265 52 53 43.7112 $w=1.68e-07 $l=6.7e-07 $layer=LI1_cond $X=10.085 $Y=0.68
+ $X2=9.415 $Y2=0.68
r266 51 79 61.6524 $w=1.68e-07 $l=9.45e-07 $layer=LI1_cond $X=9.49 $Y=2.905
+ $X2=9.49 $Y2=1.96
r267 48 53 6.81649 $w=1.7e-07 $l=1.20208e-07 $layer=LI1_cond $X=9.33 $Y=0.765
+ $X2=9.415 $Y2=0.68
r268 48 78 56.4332 $w=1.68e-07 $l=8.65e-07 $layer=LI1_cond $X=9.33 $Y=0.765
+ $X2=9.33 $Y2=1.63
r269 47 74 7.13466 $w=1.7e-07 $l=1.28e-07 $layer=LI1_cond $X=8.735 $Y=2.99
+ $X2=8.607 $Y2=2.99
r270 46 51 6.81649 $w=1.7e-07 $l=1.20208e-07 $layer=LI1_cond $X=9.405 $Y=2.99
+ $X2=9.49 $Y2=2.905
r271 46 47 43.7112 $w=1.68e-07 $l=6.7e-07 $layer=LI1_cond $X=9.405 $Y=2.99
+ $X2=8.735 $Y2=2.99
r272 44 88 46.2115 $w=3.3e-07 $l=1.65e-07 $layer=POLY_cond $X=8.575 $Y=1.39
+ $X2=8.575 $Y2=1.225
r273 43 44 145.28 $w=1.7e-07 $l=1.7e-07 $layer=licon1_POLY $count=1 $X=8.575
+ $Y=1.39 $X2=8.575 $Y2=1.39
r274 41 74 0.067832 $w=2.55e-07 $l=8.5e-08 $layer=LI1_cond $X=8.607 $Y=2.905
+ $X2=8.607 $Y2=2.99
r275 41 43 68.4687 $w=2.53e-07 $l=1.515e-06 $layer=LI1_cond $X=8.607 $Y=2.905
+ $X2=8.607 $Y2=1.39
r276 39 74 7.13466 $w=1.7e-07 $l=1.27e-07 $layer=LI1_cond $X=8.48 $Y=2.99
+ $X2=8.607 $Y2=2.99
r277 39 40 71.4385 $w=1.68e-07 $l=1.095e-06 $layer=LI1_cond $X=8.48 $Y=2.99
+ $X2=7.385 $Y2=2.99
r278 38 40 6.81649 $w=1.7e-07 $l=1.20208e-07 $layer=LI1_cond $X=7.3 $Y=2.905
+ $X2=7.385 $Y2=2.99
r279 37 73 5.16603 $w=1.7e-07 $l=8.5e-08 $layer=LI1_cond $X=7.3 $Y=2.41 $X2=7.3
+ $Y2=2.325
r280 37 38 32.2941 $w=1.68e-07 $l=4.95e-07 $layer=LI1_cond $X=7.3 $Y=2.41
+ $X2=7.3 $Y2=2.905
r281 36 73 5.16603 $w=1.7e-07 $l=8.5e-08 $layer=LI1_cond $X=7.3 $Y=2.24 $X2=7.3
+ $Y2=2.325
r282 36 72 18.2674 $w=1.68e-07 $l=2.8e-07 $layer=LI1_cond $X=7.3 $Y=2.24 $X2=7.3
+ $Y2=1.96
r283 34 66 0.716491 $w=1.7e-07 $l=8.5e-08 $layer=LI1_cond $X=6.395 $Y=2.325
+ $X2=6.31 $Y2=2.325
r284 33 73 1.34256 $w=1.7e-07 $l=8.5e-08 $layer=LI1_cond $X=7.215 $Y=2.325
+ $X2=7.3 $Y2=2.325
r285 33 34 53.4973 $w=1.68e-07 $l=8.2e-07 $layer=LI1_cond $X=7.215 $Y=2.325
+ $X2=6.395 $Y2=2.325
r286 31 64 0.716491 $w=1.7e-07 $l=8.5e-08 $layer=LI1_cond $X=6.225 $Y=2.185
+ $X2=6.31 $Y2=2.185
r287 31 32 43.7112 $w=1.68e-07 $l=6.7e-07 $layer=LI1_cond $X=6.225 $Y=2.185
+ $X2=5.555 $Y2=2.185
r288 29 32 6.81649 $w=1.7e-07 $l=1.20208e-07 $layer=LI1_cond $X=5.47 $Y=2.27
+ $X2=5.555 $Y2=2.185
r289 29 30 18.2674 $w=1.68e-07 $l=2.8e-07 $layer=LI1_cond $X=5.47 $Y=2.27
+ $X2=5.47 $Y2=2.55
r290 27 30 6.81649 $w=1.7e-07 $l=1.20208e-07 $layer=LI1_cond $X=5.385 $Y=2.635
+ $X2=5.47 $Y2=2.55
r291 27 63 126.241 $w=1.68e-07 $l=1.935e-06 $layer=LI1_cond $X=5.385 $Y=2.635
+ $X2=3.45 $Y2=2.635
r292 26 60 4.62375 $w=1.7e-07 $l=1.65e-07 $layer=LI1_cond $X=3.15 $Y=2.39
+ $X2=3.15 $Y2=2.555
r293 26 59 78.615 $w=1.68e-07 $l=1.205e-06 $layer=LI1_cond $X=3.15 $Y=2.39
+ $X2=3.15 $Y2=1.185
r294 21 60 2.96841 $w=3.28e-07 $l=8.5e-08 $layer=LI1_cond $X=3.065 $Y=2.555
+ $X2=3.15 $Y2=2.555
r295 21 23 12.0483 $w=3.28e-07 $l=3.45e-07 $layer=LI1_cond $X=3.065 $Y=2.555
+ $X2=2.72 $Y2=2.555
r296 19 92 328.17 $w=1.5e-07 $l=6.4e-07 $layer=POLY_cond $X=10.285 $Y=0.715
+ $X2=10.285 $Y2=1.355
r297 14 77 52.2586 $w=2.99e-07 $l=2.85044e-07 $layer=POLY_cond $X=9.4 $Y=2.045
+ $X2=9.475 $Y2=1.795
r298 14 16 159.06 $w=1.5e-07 $l=4.95e-07 $layer=POLY_cond $X=9.4 $Y=2.045
+ $X2=9.4 $Y2=2.54
r299 12 88 261.511 $w=1.5e-07 $l=5.1e-07 $layer=POLY_cond $X=8.625 $Y=0.715
+ $X2=8.625 $Y2=1.225
r300 7 70 50.1894 $w=3.66e-07 $l=3.02903e-07 $layer=POLY_cond $X=7.18 $Y=2.045
+ $X2=7.297 $Y2=1.795
r301 7 9 159.06 $w=1.5e-07 $l=4.95e-07 $layer=POLY_cond $X=7.18 $Y=2.045
+ $X2=7.18 $Y2=2.54
r302 2 62 600 $w=1.7e-07 $l=9.0678e-07 $layer=licon1_PDIFF $count=1 $X=2.57
+ $Y=2.12 $X2=3.285 $Y2=2.555
r303 2 23 600 $w=1.7e-07 $l=5.04455e-07 $layer=licon1_PDIFF $count=1 $X=2.57
+ $Y=2.12 $X2=2.72 $Y2=2.555
r304 1 57 182 $w=1.7e-07 $l=6.9114e-07 $layer=licon1_NDIFF $count=1 $X=2.76
+ $Y=0.525 $X2=3.23 $Y2=1.02
.ends

.subckt PM_SKY130_FD_SC_HS__FAH_2%A_849_424# 1 2 7 9 10 11 12 14 15 18 19 20 23
+ 25 28 29 31 35 36 38 41 46 49 51 53 56 57 58 60 61 62 65 67 71 75 76 80
c209 80 0 2.97007e-19 $X=7.822 $Y=1.275
c210 71 0 1.90025e-19 $X=4.93 $Y=1.02
c211 53 0 2.83882e-20 $X=6.375 $Y=1.44
c212 23 0 1.66419e-19 $X=9.455 $Y=0.715
c213 7 0 1.77494e-19 $X=7.6 $Y=1.11
c214 1 0 1.90307e-19 $X=4.52 $Y=0.525
r215 76 78 6.19786 $w=1.68e-07 $l=9.5e-08 $layer=LI1_cond $X=5.62 $Y=1.345
+ $X2=5.62 $Y2=1.44
r216 73 74 5.66838 $w=3.28e-07 $l=8.5e-08 $layer=LI1_cond $X=4.93 $Y=1.345
+ $X2=4.93 $Y2=1.43
r217 71 73 11.3498 $w=3.28e-07 $l=3.25e-07 $layer=LI1_cond $X=4.93 $Y=1.02
+ $X2=4.93 $Y2=1.345
r218 67 68 72.64 $w=1.7e-07 $l=3.4e-07 $layer=licon1_POLY $count=2 $X=7.88
+ $Y=1.44 $X2=7.88 $Y2=1.44
r219 65 80 7.79447 $w=2.93e-07 $l=1.47e-07 $layer=LI1_cond $X=7.822 $Y=1.422
+ $X2=7.822 $Y2=1.275
r220 65 67 0.703186 $w=2.93e-07 $l=1.8e-08 $layer=LI1_cond $X=7.822 $Y=1.422
+ $X2=7.822 $Y2=1.44
r221 63 80 55.4545 $w=1.68e-07 $l=8.5e-07 $layer=LI1_cond $X=7.76 $Y=0.425
+ $X2=7.76 $Y2=1.275
r222 61 63 6.81649 $w=1.7e-07 $l=1.20208e-07 $layer=LI1_cond $X=7.675 $Y=0.34
+ $X2=7.76 $Y2=0.425
r223 61 62 43.7112 $w=1.68e-07 $l=6.7e-07 $layer=LI1_cond $X=7.675 $Y=0.34
+ $X2=7.005 $Y2=0.34
r224 59 62 6.81649 $w=1.7e-07 $l=1.20208e-07 $layer=LI1_cond $X=6.92 $Y=0.425
+ $X2=7.005 $Y2=0.34
r225 59 60 27.7273 $w=1.68e-07 $l=4.25e-07 $layer=LI1_cond $X=6.92 $Y=0.425
+ $X2=6.92 $Y2=0.85
r226 57 60 6.81649 $w=1.7e-07 $l=1.20208e-07 $layer=LI1_cond $X=6.835 $Y=0.935
+ $X2=6.92 $Y2=0.85
r227 57 58 18.9198 $w=1.68e-07 $l=2.9e-07 $layer=LI1_cond $X=6.835 $Y=0.935
+ $X2=6.545 $Y2=0.935
r228 55 58 6.81649 $w=1.7e-07 $l=1.20208e-07 $layer=LI1_cond $X=6.46 $Y=1.02
+ $X2=6.545 $Y2=0.935
r229 55 56 21.8556 $w=1.68e-07 $l=3.35e-07 $layer=LI1_cond $X=6.46 $Y=1.02
+ $X2=6.46 $Y2=1.355
r230 54 78 0.716491 $w=1.7e-07 $l=8.5e-08 $layer=LI1_cond $X=5.705 $Y=1.44
+ $X2=5.62 $Y2=1.44
r231 53 56 6.81649 $w=1.7e-07 $l=1.20208e-07 $layer=LI1_cond $X=6.375 $Y=1.44
+ $X2=6.46 $Y2=1.355
r232 53 54 43.7112 $w=1.68e-07 $l=6.7e-07 $layer=LI1_cond $X=6.375 $Y=1.44
+ $X2=5.705 $Y2=1.44
r233 52 73 4.62375 $w=1.7e-07 $l=1.65e-07 $layer=LI1_cond $X=5.095 $Y=1.345
+ $X2=4.93 $Y2=1.345
r234 51 76 0.716491 $w=1.7e-07 $l=8.5e-08 $layer=LI1_cond $X=5.535 $Y=1.345
+ $X2=5.62 $Y2=1.345
r235 51 52 28.7059 $w=1.68e-07 $l=4.4e-07 $layer=LI1_cond $X=5.535 $Y=1.345
+ $X2=5.095 $Y2=1.345
r236 47 75 3.70735 $w=2.5e-07 $l=8.5e-08 $layer=LI1_cond $X=4.935 $Y=2.225
+ $X2=4.85 $Y2=2.225
r237 47 49 5.30124 $w=2.48e-07 $l=1.15e-07 $layer=LI1_cond $X=4.935 $Y=2.225
+ $X2=5.05 $Y2=2.225
r238 46 75 2.76166 $w=1.7e-07 $l=1.25e-07 $layer=LI1_cond $X=4.85 $Y=2.1
+ $X2=4.85 $Y2=2.225
r239 46 74 43.7112 $w=1.68e-07 $l=6.7e-07 $layer=LI1_cond $X=4.85 $Y=2.1
+ $X2=4.85 $Y2=1.43
r240 39 41 133.319 $w=1.5e-07 $l=2.6e-07 $layer=POLY_cond $X=9.925 $Y=1.97
+ $X2=10.185 $Y2=1.97
r241 35 68 62.0758 $w=3.3e-07 $l=3.55e-07 $layer=POLY_cond $X=7.88 $Y=1.795
+ $X2=7.88 $Y2=1.44
r242 29 41 2.83073 $w=1.5e-07 $l=7.5e-08 $layer=POLY_cond $X=10.185 $Y=2.045
+ $X2=10.185 $Y2=1.97
r243 29 31 159.06 $w=1.5e-07 $l=4.95e-07 $layer=POLY_cond $X=10.185 $Y=2.045
+ $X2=10.185 $Y2=2.54
r244 28 39 2.83073 $w=1.5e-07 $l=7.5e-08 $layer=POLY_cond $X=9.925 $Y=1.895
+ $X2=9.925 $Y2=1.97
r245 27 28 258.947 $w=1.5e-07 $l=5.05e-07 $layer=POLY_cond $X=9.925 $Y=1.39
+ $X2=9.925 $Y2=1.895
r246 26 38 20.4101 $w=1.5e-07 $l=7.5e-08 $layer=POLY_cond $X=9.53 $Y=1.315
+ $X2=9.455 $Y2=1.315
r247 25 27 26.9307 $w=1.5e-07 $l=1.06066e-07 $layer=POLY_cond $X=9.85 $Y=1.315
+ $X2=9.925 $Y2=1.39
r248 25 26 164.085 $w=1.5e-07 $l=3.2e-07 $layer=POLY_cond $X=9.85 $Y=1.315
+ $X2=9.53 $Y2=1.315
r249 21 38 5.30422 $w=1.5e-07 $l=7.5e-08 $layer=POLY_cond $X=9.455 $Y=1.24
+ $X2=9.455 $Y2=1.315
r250 21 23 269.202 $w=1.5e-07 $l=5.25e-07 $layer=POLY_cond $X=9.455 $Y=1.24
+ $X2=9.455 $Y2=0.715
r251 19 38 20.4101 $w=1.5e-07 $l=7.5e-08 $layer=POLY_cond $X=9.38 $Y=1.315
+ $X2=9.455 $Y2=1.315
r252 19 20 143.574 $w=1.5e-07 $l=2.8e-07 $layer=POLY_cond $X=9.38 $Y=1.315
+ $X2=9.1 $Y2=1.315
r253 17 20 26.9307 $w=1.5e-07 $l=1.06066e-07 $layer=POLY_cond $X=9.025 $Y=1.39
+ $X2=9.1 $Y2=1.315
r254 17 18 207.67 $w=1.5e-07 $l=4.05e-07 $layer=POLY_cond $X=9.025 $Y=1.39
+ $X2=9.025 $Y2=1.795
r255 16 36 7.1379 $w=1.5e-07 $l=9e-08 $layer=POLY_cond $X=8.46 $Y=1.87 $X2=8.37
+ $Y2=1.87
r256 15 18 26.9307 $w=1.5e-07 $l=1.06066e-07 $layer=POLY_cond $X=8.95 $Y=1.87
+ $X2=9.025 $Y2=1.795
r257 15 16 251.255 $w=1.5e-07 $l=4.9e-07 $layer=POLY_cond $X=8.95 $Y=1.87
+ $X2=8.46 $Y2=1.87
r258 12 36 70.174 $w=1.8e-07 $l=1.75e-07 $layer=POLY_cond $X=8.37 $Y=2.045
+ $X2=8.37 $Y2=1.87
r259 12 14 159.06 $w=1.5e-07 $l=4.95e-07 $layer=POLY_cond $X=8.37 $Y=2.045
+ $X2=8.37 $Y2=2.54
r260 11 35 32.1775 $w=1.5e-07 $l=1.98997e-07 $layer=POLY_cond $X=8.045 $Y=1.87
+ $X2=7.88 $Y2=1.795
r261 10 36 7.1379 $w=1.5e-07 $l=9e-08 $layer=POLY_cond $X=8.28 $Y=1.87 $X2=8.37
+ $Y2=1.87
r262 10 11 120.5 $w=1.5e-07 $l=2.35e-07 $layer=POLY_cond $X=8.28 $Y=1.87
+ $X2=8.045 $Y2=1.87
r263 7 68 65.1981 $w=2.07e-07 $l=3.52987e-07 $layer=POLY_cond $X=7.6 $Y=1.11
+ $X2=7.88 $Y2=1.275
r264 7 9 126.927 $w=1.5e-07 $l=3.95e-07 $layer=POLY_cond $X=7.6 $Y=1.11 $X2=7.6
+ $Y2=0.715
r265 2 49 300 $w=1.7e-07 $l=8.745e-07 $layer=licon1_PDIFF $count=2 $X=4.245
+ $Y=2.12 $X2=5.05 $Y2=2.265
r266 1 71 182 $w=1.7e-07 $l=6.69309e-07 $layer=licon1_NDIFF $count=1 $X=4.52
+ $Y=0.525 $X2=4.93 $Y2=1.02
.ends

.subckt PM_SKY130_FD_SC_HS__FAH_2%A_1689_424# 1 2 3 4 15 17 19 23 28 29 35 37 39
+ 41 43 44 46
c116 37 0 5.31033e-20 $X=11.24 $Y=2.075
r117 46 48 16.8178 $w=4.28e-07 $l=5.9e-07 $layer=LI1_cond $X=11.11 $Y=0.715
+ $X2=11.7 $Y2=0.715
r118 43 44 6.71605 $w=3.28e-07 $l=1.15e-07 $layer=LI1_cond $X=9.07 $Y=2.245
+ $X2=9.07 $Y2=2.13
r119 41 44 70.1337 $w=1.68e-07 $l=1.075e-06 $layer=LI1_cond $X=8.99 $Y=1.055
+ $X2=8.99 $Y2=2.13
r120 37 39 24.2013 $w=2.48e-07 $l=5.25e-07 $layer=LI1_cond $X=11.24 $Y=2.075
+ $X2=11.765 $Y2=2.075
r121 35 36 145.28 $w=1.7e-07 $l=1.7e-07 $layer=licon1_POLY $count=1 $X=11.075
+ $Y=1.635 $X2=11.075 $Y2=1.635
r122 33 37 6.8199 $w=2.5e-07 $l=1.82071e-07 $layer=LI1_cond $X=11.11 $Y=1.95
+ $X2=11.24 $Y2=2.075
r123 33 35 13.9623 $w=2.58e-07 $l=3.15e-07 $layer=LI1_cond $X=11.11 $Y=1.95
+ $X2=11.11 $Y2=1.635
r124 32 46 3.65327 $w=2.6e-07 $l=3.4e-07 $layer=LI1_cond $X=11.11 $Y=1.055
+ $X2=11.11 $Y2=0.715
r125 32 35 25.7083 $w=2.58e-07 $l=5.8e-07 $layer=LI1_cond $X=11.11 $Y=1.055
+ $X2=11.11 $Y2=1.635
r126 31 46 7.41121 $w=4.28e-07 $l=2.6e-07 $layer=LI1_cond $X=10.85 $Y=0.715
+ $X2=11.11 $Y2=0.715
r127 30 31 16.3102 $w=1.68e-07 $l=2.5e-07 $layer=LI1_cond $X=10.85 $Y=0.425
+ $X2=10.85 $Y2=0.675
r128 28 30 6.81649 $w=1.7e-07 $l=1.20208e-07 $layer=LI1_cond $X=10.765 $Y=0.34
+ $X2=10.85 $Y2=0.425
r129 28 29 110.257 $w=1.68e-07 $l=1.69e-06 $layer=LI1_cond $X=10.765 $Y=0.34
+ $X2=9.075 $Y2=0.34
r130 21 41 8.46218 $w=3.28e-07 $l=1.65e-07 $layer=LI1_cond $X=8.91 $Y=0.89
+ $X2=8.91 $Y2=1.055
r131 21 23 12.2229 $w=3.28e-07 $l=3.5e-07 $layer=LI1_cond $X=8.91 $Y=0.89
+ $X2=8.91 $Y2=0.54
r132 20 29 7.76618 $w=1.7e-07 $l=2.03101e-07 $layer=LI1_cond $X=8.91 $Y=0.425
+ $X2=9.075 $Y2=0.34
r133 20 23 4.01609 $w=3.28e-07 $l=1.15e-07 $layer=LI1_cond $X=8.91 $Y=0.425
+ $X2=8.91 $Y2=0.54
r134 17 36 49.8163 $w=4.02e-07 $l=3.1225e-07 $layer=POLY_cond $X=10.87 $Y=1.885
+ $X2=11.01 $Y2=1.635
r135 17 19 184.767 $w=1.5e-07 $l=5.75e-07 $layer=POLY_cond $X=10.87 $Y=1.885
+ $X2=10.87 $Y2=2.46
r136 13 36 39.6247 $w=4.02e-07 $l=2.29783e-07 $layer=POLY_cond $X=10.855 $Y=1.47
+ $X2=11.01 $Y2=1.635
r137 13 15 387.138 $w=1.5e-07 $l=7.55e-07 $layer=POLY_cond $X=10.855 $Y=1.47
+ $X2=10.855 $Y2=0.715
r138 4 39 600 $w=1.7e-07 $l=2.17428e-07 $layer=licon1_PDIFF $count=1 $X=11.615
+ $Y=1.96 $X2=11.765 $Y2=2.115
r139 3 43 300 $w=1.7e-07 $l=6.84653e-07 $layer=licon1_PDIFF $count=2 $X=8.445
+ $Y=2.12 $X2=9.07 $Y2=2.245
r140 2 48 91 $w=1.7e-07 $l=2.03286e-07 $layer=licon1_NDIFF $count=2 $X=11.56
+ $Y=0.395 $X2=11.7 $Y2=0.54
r141 1 23 91 $w=1.7e-07 $l=2.73038e-07 $layer=licon1_NDIFF $count=2 $X=8.7
+ $Y=0.395 $X2=8.91 $Y2=0.54
.ends

.subckt PM_SKY130_FD_SC_HS__FAH_2%CI 3 5 6 8 9 10 11
c43 9 0 2.46841e-20 $X=11.505 $Y=1.11
c44 6 0 4.06256e-19 $X=11.54 $Y=1.885
r45 14 15 145.28 $w=1.7e-07 $l=1.7e-07 $layer=licon1_POLY $count=1 $X=11.615
+ $Y=1.615 $X2=11.615 $Y2=1.615
r46 11 15 5.06376 $w=3.28e-07 $l=1.45e-07 $layer=LI1_cond $X=11.76 $Y=1.615
+ $X2=11.615 $Y2=1.615
r47 9 10 53.9552 $w=1.9e-07 $l=1.5e-07 $layer=POLY_cond $X=11.505 $Y=1.11
+ $X2=11.505 $Y2=1.26
r48 6 14 55.8646 $w=2.93e-07 $l=3.05205e-07 $layer=POLY_cond $X=11.54 $Y=1.885
+ $X2=11.615 $Y2=1.615
r49 6 8 184.767 $w=1.5e-07 $l=5.75e-07 $layer=POLY_cond $X=11.54 $Y=1.885
+ $X2=11.54 $Y2=2.46
r50 5 14 38.5916 $w=2.93e-07 $l=2.05122e-07 $layer=POLY_cond $X=11.525 $Y=1.45
+ $X2=11.615 $Y2=1.615
r51 5 10 97.4255 $w=1.5e-07 $l=1.9e-07 $layer=POLY_cond $X=11.525 $Y=1.45
+ $X2=11.525 $Y2=1.26
r52 3 9 126.927 $w=1.5e-07 $l=3.95e-07 $layer=POLY_cond $X=11.485 $Y=0.715
+ $X2=11.485 $Y2=1.11
.ends

.subckt PM_SKY130_FD_SC_HS__FAH_2%A_1451_424# 1 2 7 9 10 12 13 15 16 18 19 22 24
+ 25 31 32 38 39
c132 39 0 1.08693e-19 $X=12.24 $Y=0.925
c133 38 0 7.1893e-20 $X=12.24 $Y=0.925
c134 31 0 1.39782e-19 $X=12.095 $Y=0.925
c135 24 0 1.77494e-19 $X=8.225 $Y=1.04
c136 22 0 5.88905e-20 $X=12.965 $Y=1.492
c137 13 0 2.25411e-19 $X=12.965 $Y=1.22
c138 7 0 1.78707e-19 $X=12.53 $Y=1.765
r139 42 43 145.28 $w=1.7e-07 $l=1.7e-07 $layer=licon1_POLY $count=1 $X=12.25
+ $Y=1.385 $X2=12.25 $Y2=1.385
r140 39 43 16.0644 $w=3.28e-07 $l=4.6e-07 $layer=LI1_cond $X=12.25 $Y=0.925
+ $X2=12.25 $Y2=1.385
r141 38 39 9.3 $w=1.7e-07 $l=1.7e-07 $layer=mcon $count=1 $X=12.24 $Y=0.925
+ $X2=12.24 $Y2=0.925
r142 35 50 10.6717 $w=4.63e-07 $l=4.05e-07 $layer=LI1_cond $X=8.285 $Y=0.925
+ $X2=8.285 $Y2=0.52
r143 34 35 9.3 $w=1.7e-07 $l=1.7e-07 $layer=mcon $count=1 $X=8.4 $Y=0.925
+ $X2=8.4 $Y2=0.925
r144 32 34 0.115467 $w=2.3e-07 $l=1.45e-07 $layer=MET1_cond $X=8.545 $Y=0.925
+ $X2=8.4 $Y2=0.925
r145 31 38 0.115467 $w=2.3e-07 $l=1.45e-07 $layer=MET1_cond $X=12.095 $Y=0.925
+ $X2=12.24 $Y2=0.925
r146 31 32 4.39356 $w=1.4e-07 $l=3.55e-06 $layer=MET1_cond $X=12.095 $Y=0.925
+ $X2=8.545 $Y2=0.925
r147 25 27 1.58159 $w=6.03e-07 $l=8e-08 $layer=LI1_cond $X=8.225 $Y=2.432
+ $X2=8.145 $Y2=2.432
r148 24 35 8.16564 $w=4.63e-07 $l=1.41863e-07 $layer=LI1_cond $X=8.225 $Y=1.04
+ $X2=8.285 $Y2=0.925
r149 24 25 71.1123 $w=1.68e-07 $l=1.09e-06 $layer=LI1_cond $X=8.225 $Y=1.04
+ $X2=8.225 $Y2=2.13
r150 22 23 1.59956 $w=4.52e-07 $l=1.5e-08 $layer=POLY_cond $X=12.965 $Y=1.492
+ $X2=12.98 $Y2=1.492
r151 21 22 45.854 $w=4.52e-07 $l=4.3e-07 $layer=POLY_cond $X=12.535 $Y=1.492
+ $X2=12.965 $Y2=1.492
r152 20 21 0.533186 $w=4.52e-07 $l=5e-09 $layer=POLY_cond $X=12.53 $Y=1.492
+ $X2=12.535 $Y2=1.492
r153 19 42 33.2236 $w=3.3e-07 $l=1.9e-07 $layer=POLY_cond $X=12.44 $Y=1.385
+ $X2=12.25 $Y2=1.385
r154 19 20 13.1977 $w=4.52e-07 $l=1.45186e-07 $layer=POLY_cond $X=12.44 $Y=1.385
+ $X2=12.53 $Y2=1.492
r155 16 23 28.877 $w=1.5e-07 $l=2.73e-07 $layer=POLY_cond $X=12.98 $Y=1.765
+ $X2=12.98 $Y2=1.492
r156 16 18 204.047 $w=1.5e-07 $l=6.35e-07 $layer=POLY_cond $X=12.98 $Y=1.765
+ $X2=12.98 $Y2=2.4
r157 13 22 28.877 $w=1.5e-07 $l=2.72e-07 $layer=POLY_cond $X=12.965 $Y=1.22
+ $X2=12.965 $Y2=1.492
r158 13 15 154.24 $w=1.5e-07 $l=4.8e-07 $layer=POLY_cond $X=12.965 $Y=1.22
+ $X2=12.965 $Y2=0.74
r159 10 21 28.877 $w=1.5e-07 $l=2.72e-07 $layer=POLY_cond $X=12.535 $Y=1.22
+ $X2=12.535 $Y2=1.492
r160 10 12 154.24 $w=1.5e-07 $l=4.8e-07 $layer=POLY_cond $X=12.535 $Y=1.22
+ $X2=12.535 $Y2=0.74
r161 7 20 28.877 $w=1.5e-07 $l=2.73e-07 $layer=POLY_cond $X=12.53 $Y=1.765
+ $X2=12.53 $Y2=1.492
r162 7 9 204.047 $w=1.5e-07 $l=6.35e-07 $layer=POLY_cond $X=12.53 $Y=1.765
+ $X2=12.53 $Y2=2.4