* File: sky130_fd_sc_hs__sdfbbp_1.pex.spice
* Created: Thu Aug 27 21:08:08 2020
* Program "Calibre xRC"
* Version "v2018.4_34.26"
* Nominal Temperature: 27C
* Circuit Temperature: 27C
* 
.subckt PM_SKY130_FD_SC_HS__SDFBBP_1%SCD 2 3 5 8 9 10 14 15 16
r28 18 19 96.8533 $w=1.7e-07 $l=2.55e-07 $layer=licon1_POLY $count=1 $X=0.385
+ $Y=1.97 $X2=0.385 $Y2=1.97
r29 14 16 45.1558 $w=3.75e-07 $l=1.65e-07 $layer=POLY_cond $X=0.407 $Y=1.29
+ $X2=0.407 $Y2=1.125
r30 14 15 96.8533 $w=1.7e-07 $l=2.55e-07 $layer=licon1_POLY $count=1 $X=0.385
+ $Y=1.29 $X2=0.385 $Y2=1.29
r31 10 19 8.27047 $w=4.23e-07 $l=3.05e-07 $layer=LI1_cond $X=0.337 $Y=1.665
+ $X2=0.337 $Y2=1.97
r32 9 10 10.033 $w=4.23e-07 $l=3.7e-07 $layer=LI1_cond $X=0.337 $Y=1.295
+ $X2=0.337 $Y2=1.665
r33 9 15 0.135582 $w=4.23e-07 $l=5e-09 $layer=LI1_cond $X=0.337 $Y=1.295
+ $X2=0.337 $Y2=1.29
r34 8 16 102.827 $w=1.5e-07 $l=3.2e-07 $layer=POLY_cond $X=0.52 $Y=0.805
+ $X2=0.52 $Y2=1.125
r35 3 18 56.1009 $w=3.02e-07 $l=3.20273e-07 $layer=POLY_cond $X=0.505 $Y=2.245
+ $X2=0.407 $Y2=1.97
r36 3 5 126.927 $w=1.5e-07 $l=3.95e-07 $layer=POLY_cond $X=0.505 $Y=2.245
+ $X2=0.505 $Y2=2.64
r37 2 18 4.79453 $w=3.75e-07 $l=2.2e-08 $layer=POLY_cond $X=0.407 $Y=1.948
+ $X2=0.407 $Y2=1.97
r38 1 14 3.26277 $w=3.75e-07 $l=2.2e-08 $layer=POLY_cond $X=0.407 $Y=1.312
+ $X2=0.407 $Y2=1.29
r39 1 2 94.3237 $w=3.75e-07 $l=6.36e-07 $layer=POLY_cond $X=0.407 $Y=1.312
+ $X2=0.407 $Y2=1.948
.ends

.subckt PM_SKY130_FD_SC_HS__SDFBBP_1%D 3 6 7 9 10 16
c45 10 0 1.39381e-19 $X=1.68 $Y=1.665
r46 14 16 30.6007 $w=3.3e-07 $l=1.75e-07 $layer=POLY_cond $X=1.435 $Y=1.69
+ $X2=1.61 $Y2=1.69
r47 12 14 2.62292 $w=3.3e-07 $l=1.5e-08 $layer=POLY_cond $X=1.42 $Y=1.69
+ $X2=1.435 $Y2=1.69
r48 10 16 145.28 $w=1.7e-07 $l=1.7e-07 $layer=licon1_POLY $count=1 $X=1.61
+ $Y=1.69 $X2=1.61 $Y2=1.69
r49 7 9 126.927 $w=1.5e-07 $l=3.95e-07 $layer=POLY_cond $X=1.435 $Y=2.245
+ $X2=1.435 $Y2=2.64
r50 6 7 36.0588 $w=1.8e-07 $l=9e-08 $layer=POLY_cond $X=1.435 $Y=2.155 $X2=1.435
+ $Y2=2.245
r51 5 14 16.9318 $w=1.8e-07 $l=1.65e-07 $layer=POLY_cond $X=1.435 $Y=1.855
+ $X2=1.435 $Y2=1.69
r52 5 6 116.613 $w=1.8e-07 $l=3e-07 $layer=POLY_cond $X=1.435 $Y=1.855 $X2=1.435
+ $Y2=2.155
r53 1 12 21.2229 $w=1.5e-07 $l=1.65e-07 $layer=POLY_cond $X=1.42 $Y=1.525
+ $X2=1.42 $Y2=1.69
r54 1 3 369.191 $w=1.5e-07 $l=7.2e-07 $layer=POLY_cond $X=1.42 $Y=1.525 $X2=1.42
+ $Y2=0.805
.ends

.subckt PM_SKY130_FD_SC_HS__SDFBBP_1%A_341_93# 1 2 9 11 13 14 15 17 22 26 30 33
+ 34 35 38
c82 15 0 6.84835e-20 $X=1.855 $Y=1.24
r83 35 38 51.8663 $w=1.68e-07 $l=7.95e-07 $layer=LI1_cond $X=2.695 $Y=1.83
+ $X2=2.695 $Y2=1.035
r84 33 36 6.39487 $w=5.03e-07 $l=2.7e-07 $layer=LI1_cond $X=2.527 $Y=1.995
+ $X2=2.527 $Y2=2.265
r85 33 35 9.54788 $w=5.03e-07 $l=1.65e-07 $layer=LI1_cond $X=2.527 $Y=1.995
+ $X2=2.527 $Y2=1.83
r86 33 34 145.28 $w=1.7e-07 $l=1.7e-07 $layer=licon1_POLY $count=1 $X=2.43
+ $Y=1.995 $X2=2.43 $Y2=1.995
r87 28 30 4.01609 $w=3.28e-07 $l=1.15e-07 $layer=LI1_cond $X=3.12 $Y=2.35
+ $X2=3.12 $Y2=2.465
r88 27 36 7.21919 $w=1.7e-07 $l=2.53e-07 $layer=LI1_cond $X=2.78 $Y=2.265
+ $X2=2.527 $Y2=2.265
r89 26 28 7.76618 $w=1.7e-07 $l=2.03101e-07 $layer=LI1_cond $X=2.955 $Y=2.265
+ $X2=3.12 $Y2=2.35
r90 26 27 11.4171 $w=1.68e-07 $l=1.75e-07 $layer=LI1_cond $X=2.955 $Y=2.265
+ $X2=2.78 $Y2=2.265
r91 20 38 6.94937 $w=2.48e-07 $l=1.25e-07 $layer=LI1_cond $X=2.735 $Y=0.91
+ $X2=2.735 $Y2=1.035
r92 20 22 4.37928 $w=2.48e-07 $l=9.5e-08 $layer=LI1_cond $X=2.735 $Y=0.91
+ $X2=2.735 $Y2=0.815
r93 19 34 35.5134 $w=4.15e-07 $l=2.65e-07 $layer=POLY_cond $X=2.165 $Y=2.037
+ $X2=2.43 $Y2=2.037
r94 17 19 49.3036 $w=2.29e-07 $l=2.41607e-07 $layer=POLY_cond $X=2.09 $Y=1.83
+ $X2=2.015 $Y2=2.037
r95 16 17 264.074 $w=1.5e-07 $l=5.15e-07 $layer=POLY_cond $X=2.09 $Y=1.315
+ $X2=2.09 $Y2=1.83
r96 14 16 26.9307 $w=1.5e-07 $l=1.06066e-07 $layer=POLY_cond $X=2.015 $Y=1.24
+ $X2=2.09 $Y2=1.315
r97 14 15 82.0426 $w=1.5e-07 $l=1.6e-07 $layer=POLY_cond $X=2.015 $Y=1.24
+ $X2=1.855 $Y2=1.24
r98 11 19 49.5141 $w=2.29e-07 $l=2.65149e-07 $layer=POLY_cond $X=1.885 $Y=2.245
+ $X2=2.015 $Y2=2.037
r99 11 13 126.927 $w=1.5e-07 $l=3.95e-07 $layer=POLY_cond $X=1.885 $Y=2.245
+ $X2=1.885 $Y2=2.64
r100 7 15 26.9307 $w=1.5e-07 $l=1.06066e-07 $layer=POLY_cond $X=1.78 $Y=1.165
+ $X2=1.855 $Y2=1.24
r101 7 9 184.596 $w=1.5e-07 $l=3.6e-07 $layer=POLY_cond $X=1.78 $Y=1.165
+ $X2=1.78 $Y2=0.805
r102 2 30 300 $w=1.7e-07 $l=2.10357e-07 $layer=licon1_PDIFF $count=2 $X=2.97
+ $Y=2.32 $X2=3.12 $Y2=2.465
r103 1 22 182 $w=1.7e-07 $l=2.81425e-07 $layer=licon1_NDIFF $count=1 $X=2.555
+ $Y=0.595 $X2=2.695 $Y2=0.815
.ends

.subckt PM_SKY130_FD_SC_HS__SDFBBP_1%SCE 4 5 7 8 9 13 14 15 17 18 20 21
c84 5 0 7.0898e-20 $X=1.015 $Y=2.245
r85 24 25 145.28 $w=1.7e-07 $l=1.7e-07 $layer=licon1_POLY $count=1 $X=0.97
+ $Y=1.93 $X2=0.97 $Y2=1.93
r86 21 25 6.60335 $w=4.78e-07 $l=2.65e-07 $layer=LI1_cond $X=1.045 $Y=1.665
+ $X2=1.045 $Y2=1.93
r87 18 20 126.927 $w=1.5e-07 $l=3.95e-07 $layer=POLY_cond $X=2.895 $Y=2.245
+ $X2=2.895 $Y2=2.64
r88 17 18 36.0588 $w=1.8e-07 $l=9e-08 $layer=POLY_cond $X=2.895 $Y=2.155
+ $X2=2.895 $Y2=2.245
r89 16 17 272.097 $w=1.8e-07 $l=7e-07 $layer=POLY_cond $X=2.895 $Y=1.455
+ $X2=2.895 $Y2=2.155
r90 14 16 27.2212 $w=1.5e-07 $l=1.21861e-07 $layer=POLY_cond $X=2.805 $Y=1.38
+ $X2=2.895 $Y2=1.455
r91 14 15 128.191 $w=1.5e-07 $l=2.5e-07 $layer=POLY_cond $X=2.805 $Y=1.38
+ $X2=2.555 $Y2=1.38
r92 11 15 26.9307 $w=1.5e-07 $l=1.06066e-07 $layer=POLY_cond $X=2.48 $Y=1.305
+ $X2=2.555 $Y2=1.38
r93 11 13 256.383 $w=1.5e-07 $l=5e-07 $layer=POLY_cond $X=2.48 $Y=1.305 $X2=2.48
+ $Y2=0.805
r94 10 13 282.021 $w=1.5e-07 $l=5.5e-07 $layer=POLY_cond $X=2.48 $Y=0.255
+ $X2=2.48 $Y2=0.805
r95 8 10 26.9307 $w=1.5e-07 $l=1.06066e-07 $layer=POLY_cond $X=2.405 $Y=0.18
+ $X2=2.48 $Y2=0.255
r96 8 9 728.128 $w=1.5e-07 $l=1.42e-06 $layer=POLY_cond $X=2.405 $Y=0.18
+ $X2=0.985 $Y2=0.18
r97 5 24 64.2376 $w=2.83e-07 $l=3.36749e-07 $layer=POLY_cond $X=1.015 $Y=2.245
+ $X2=0.97 $Y2=1.93
r98 5 7 126.927 $w=1.5e-07 $l=3.95e-07 $layer=POLY_cond $X=1.015 $Y=2.245
+ $X2=1.015 $Y2=2.64
r99 2 24 38.6899 $w=2.83e-07 $l=1.92678e-07 $layer=POLY_cond $X=0.91 $Y=1.765
+ $X2=0.97 $Y2=1.93
r100 2 4 492.255 $w=1.5e-07 $l=9.6e-07 $layer=POLY_cond $X=0.91 $Y=1.765
+ $X2=0.91 $Y2=0.805
r101 1 9 26.9307 $w=1.5e-07 $l=1.06066e-07 $layer=POLY_cond $X=0.91 $Y=0.255
+ $X2=0.985 $Y2=0.18
r102 1 4 282.021 $w=1.5e-07 $l=5.5e-07 $layer=POLY_cond $X=0.91 $Y=0.255
+ $X2=0.91 $Y2=0.805
.ends

.subckt PM_SKY130_FD_SC_HS__SDFBBP_1%CLK 1 3 4 6 7 11
r44 11 13 42.8138 $w=3.49e-07 $l=3.1e-07 $layer=POLY_cond $X=3.595 $Y=1.552
+ $X2=3.905 $Y2=1.552
r45 11 12 145.28 $w=1.7e-07 $l=1.7e-07 $layer=licon1_POLY $count=1 $X=3.595
+ $Y=1.505 $X2=3.595 $Y2=1.505
r46 9 11 17.2636 $w=3.49e-07 $l=1.25e-07 $layer=POLY_cond $X=3.47 $Y=1.552
+ $X2=3.595 $Y2=1.552
r47 7 12 7.33373 $w=3.28e-07 $l=2.1e-07 $layer=LI1_cond $X=3.595 $Y=1.295
+ $X2=3.595 $Y2=1.505
r48 4 13 22.56 $w=1.5e-07 $l=2.13e-07 $layer=POLY_cond $X=3.905 $Y=1.765
+ $X2=3.905 $Y2=1.552
r49 4 6 204.047 $w=1.5e-07 $l=6.35e-07 $layer=POLY_cond $X=3.905 $Y=1.765
+ $X2=3.905 $Y2=2.4
r50 1 9 22.56 $w=1.5e-07 $l=2.12e-07 $layer=POLY_cond $X=3.47 $Y=1.34 $X2=3.47
+ $Y2=1.552
r51 1 3 154.24 $w=1.5e-07 $l=4.8e-07 $layer=POLY_cond $X=3.47 $Y=1.34 $X2=3.47
+ $Y2=0.86
.ends

.subckt PM_SKY130_FD_SC_HS__SDFBBP_1%A_1250_231# 1 2 9 11 12 14 15 17 18 20 22
+ 25 26 29 32 34 35 36 41 43 47 48 49 51
c159 43 0 2.56036e-20 $X=8.85 $Y=1.5
c160 41 0 2.04581e-20 $X=8.85 $Y=1.825
c161 29 0 1.67029e-19 $X=6.535 $Y=0.815
c162 18 0 3.40541e-20 $X=9.25 $Y=1.295
c163 15 0 1.14272e-19 $X=8.755 $Y=1.82
r164 46 48 8.85254 $w=2.43e-07 $l=1.65e-07 $layer=LI1_cond $X=7.985 $Y=0.777
+ $X2=8.15 $Y2=0.777
r165 46 47 8.85254 $w=2.43e-07 $l=1.65e-07 $layer=LI1_cond $X=7.985 $Y=0.777
+ $X2=7.82 $Y2=0.777
r166 44 53 32.2908 $w=3.06e-07 $l=2.05e-07 $layer=POLY_cond $X=8.84 $Y=1.5
+ $X2=8.84 $Y2=1.295
r167 43 49 8.46218 $w=3.28e-07 $l=1.65e-07 $layer=LI1_cond $X=8.85 $Y=1.5
+ $X2=8.85 $Y2=1.335
r168 43 44 145.28 $w=1.7e-07 $l=1.7e-07 $layer=licon1_POLY $count=1 $X=8.85
+ $Y=1.5 $X2=8.85 $Y2=1.5
r169 41 43 11.3498 $w=3.28e-07 $l=3.25e-07 $layer=LI1_cond $X=8.85 $Y=1.825
+ $X2=8.85 $Y2=1.5
r170 38 49 28.3797 $w=1.68e-07 $l=4.35e-07 $layer=LI1_cond $X=8.77 $Y=0.9
+ $X2=8.77 $Y2=1.335
r171 36 38 6.81649 $w=1.7e-07 $l=1.20208e-07 $layer=LI1_cond $X=8.685 $Y=0.815
+ $X2=8.77 $Y2=0.9
r172 36 48 34.9037 $w=1.68e-07 $l=5.35e-07 $layer=LI1_cond $X=8.685 $Y=0.815
+ $X2=8.15 $Y2=0.815
r173 34 41 7.76618 $w=1.7e-07 $l=2.03101e-07 $layer=LI1_cond $X=8.685 $Y=1.91
+ $X2=8.85 $Y2=1.825
r174 34 35 60.0214 $w=1.68e-07 $l=9.2e-07 $layer=LI1_cond $X=8.685 $Y=1.91
+ $X2=7.765 $Y2=1.91
r175 30 35 7.76618 $w=1.7e-07 $l=2.03101e-07 $layer=LI1_cond $X=7.6 $Y=1.995
+ $X2=7.765 $Y2=1.91
r176 30 32 1.57151 $w=3.28e-07 $l=4.5e-08 $layer=LI1_cond $X=7.6 $Y=1.995
+ $X2=7.6 $Y2=2.04
r177 29 47 83.8342 $w=1.68e-07 $l=1.285e-06 $layer=LI1_cond $X=6.535 $Y=0.815
+ $X2=7.82 $Y2=0.815
r178 26 52 40.6903 $w=3.3e-07 $l=1.65e-07 $layer=POLY_cond $X=6.415 $Y=1.32
+ $X2=6.415 $Y2=1.485
r179 26 51 46.2115 $w=3.3e-07 $l=1.65e-07 $layer=POLY_cond $X=6.415 $Y=1.32
+ $X2=6.415 $Y2=1.155
r180 25 26 145.28 $w=1.7e-07 $l=1.7e-07 $layer=licon1_POLY $count=1 $X=6.415
+ $Y=1.32 $X2=6.415 $Y2=1.32
r181 23 29 7.07814 $w=1.7e-07 $l=1.56844e-07 $layer=LI1_cond $X=6.415 $Y=0.9
+ $X2=6.535 $Y2=0.815
r182 23 25 20.1678 $w=2.38e-07 $l=4.2e-07 $layer=LI1_cond $X=6.415 $Y=0.9
+ $X2=6.415 $Y2=1.32
r183 20 22 112.467 $w=1.5e-07 $l=3.5e-07 $layer=POLY_cond $X=9.325 $Y=1.22
+ $X2=9.325 $Y2=0.87
r184 19 53 19.4347 $w=1.5e-07 $l=1.75e-07 $layer=POLY_cond $X=9.015 $Y=1.295
+ $X2=8.84 $Y2=1.295
r185 18 20 26.9307 $w=1.5e-07 $l=1.06066e-07 $layer=POLY_cond $X=9.25 $Y=1.295
+ $X2=9.325 $Y2=1.22
r186 18 19 120.5 $w=1.5e-07 $l=2.35e-07 $layer=POLY_cond $X=9.25 $Y=1.295
+ $X2=9.015 $Y2=1.295
r187 15 44 62.95 $w=3.06e-07 $l=3.6e-07 $layer=POLY_cond $X=8.755 $Y=1.82
+ $X2=8.84 $Y2=1.5
r188 15 17 159.06 $w=1.5e-07 $l=4.95e-07 $layer=POLY_cond $X=8.755 $Y=1.82
+ $X2=8.755 $Y2=2.315
r189 12 14 91.58 $w=1.5e-07 $l=2.85e-07 $layer=POLY_cond $X=6.45 $Y=2.02
+ $X2=6.45 $Y2=2.305
r190 11 12 36.0588 $w=1.8e-07 $l=9e-08 $layer=POLY_cond $X=6.45 $Y=1.93 $X2=6.45
+ $Y2=2.02
r191 11 52 172.976 $w=1.8e-07 $l=4.45e-07 $layer=POLY_cond $X=6.45 $Y=1.93
+ $X2=6.45 $Y2=1.485
r192 9 51 102.827 $w=1.5e-07 $l=3.2e-07 $layer=POLY_cond $X=6.36 $Y=0.835
+ $X2=6.36 $Y2=1.155
r193 2 32 300 $w=1.7e-07 $l=3.03974e-07 $layer=licon1_PDIFF $count=2 $X=7.36
+ $Y=1.895 $X2=7.6 $Y2=2.04
r194 1 46 182 $w=1.7e-07 $l=2.4e-07 $layer=licon1_NDIFF $count=1 $X=7.845
+ $Y=0.595 $X2=7.985 $Y2=0.775
.ends

.subckt PM_SKY130_FD_SC_HS__SDFBBP_1%SET_B 3 5 7 10 12 14 16 17 18 20 21 22 24
+ 25 26 28 31 32 34 38 39 40
c169 26 0 9.6863e-20 $X=9.025 $Y=2.99
r170 45 47 5.37107 $w=3.18e-07 $l=1.4e-07 $layer=LI1_cond $X=11.22 $Y=1.635
+ $X2=11.22 $Y2=1.775
r171 44 45 145.28 $w=1.7e-07 $l=1.7e-07 $layer=licon1_POLY $count=1 $X=11.22
+ $Y=1.635 $X2=11.22 $Y2=1.635
r172 40 47 9.97484 $w=3.18e-07 $l=2.6e-07 $layer=LI1_cond $X=11.22 $Y=2.035
+ $X2=11.22 $Y2=1.775
r173 38 39 9.42727 $w=1.98e-07 $l=1.7e-07 $layer=LI1_cond $X=10.195 $Y=2.015
+ $X2=10.195 $Y2=2.185
r174 34 37 6.89066 $w=3.28e-07 $l=1.2e-07 $layer=LI1_cond $X=7.21 $Y=1.535
+ $X2=7.21 $Y2=1.655
r175 34 35 145.28 $w=1.7e-07 $l=1.7e-07 $layer=licon1_POLY $count=1 $X=7.21
+ $Y=1.535 $X2=7.21 $Y2=1.535
r176 31 47 4.40442 $w=1.7e-07 $l=1.65e-07 $layer=LI1_cond $X=11.055 $Y=1.775
+ $X2=11.22 $Y2=1.775
r177 31 32 49.5829 $w=1.68e-07 $l=7.6e-07 $layer=LI1_cond $X=11.055 $Y=1.775
+ $X2=10.295 $Y2=1.775
r178 29 32 6.81649 $w=1.7e-07 $l=1.20208e-07 $layer=LI1_cond $X=10.21 $Y=1.86
+ $X2=10.295 $Y2=1.775
r179 29 38 10.1123 $w=1.68e-07 $l=1.55e-07 $layer=LI1_cond $X=10.21 $Y=1.86
+ $X2=10.21 $Y2=2.015
r180 28 39 46.9733 $w=1.68e-07 $l=7.2e-07 $layer=LI1_cond $X=10.18 $Y=2.905
+ $X2=10.18 $Y2=2.185
r181 25 28 6.81649 $w=1.7e-07 $l=1.20208e-07 $layer=LI1_cond $X=10.095 $Y=2.99
+ $X2=10.18 $Y2=2.905
r182 25 26 69.8075 $w=1.68e-07 $l=1.07e-06 $layer=LI1_cond $X=10.095 $Y=2.99
+ $X2=9.025 $Y2=2.99
r183 24 26 6.81649 $w=1.7e-07 $l=1.20208e-07 $layer=LI1_cond $X=8.94 $Y=2.905
+ $X2=9.025 $Y2=2.99
r184 23 24 37.1872 $w=1.68e-07 $l=5.7e-07 $layer=LI1_cond $X=8.94 $Y=2.335
+ $X2=8.94 $Y2=2.905
r185 21 23 6.81649 $w=1.7e-07 $l=1.20208e-07 $layer=LI1_cond $X=8.855 $Y=2.25
+ $X2=8.94 $Y2=2.335
r186 21 22 48.9305 $w=1.68e-07 $l=7.5e-07 $layer=LI1_cond $X=8.855 $Y=2.25
+ $X2=8.105 $Y2=2.25
r187 19 22 6.81649 $w=1.7e-07 $l=1.20208e-07 $layer=LI1_cond $X=8.02 $Y=2.335
+ $X2=8.105 $Y2=2.25
r188 19 20 37.1872 $w=1.68e-07 $l=5.7e-07 $layer=LI1_cond $X=8.02 $Y=2.335
+ $X2=8.02 $Y2=2.905
r189 17 20 6.81649 $w=1.7e-07 $l=1.20208e-07 $layer=LI1_cond $X=7.935 $Y=2.99
+ $X2=8.02 $Y2=2.905
r190 17 18 43.7112 $w=1.68e-07 $l=6.7e-07 $layer=LI1_cond $X=7.935 $Y=2.99
+ $X2=7.265 $Y2=2.99
r191 16 18 6.81649 $w=1.7e-07 $l=1.20208e-07 $layer=LI1_cond $X=7.18 $Y=2.905
+ $X2=7.265 $Y2=2.99
r192 16 37 81.5508 $w=1.68e-07 $l=1.25e-06 $layer=LI1_cond $X=7.18 $Y=2.905
+ $X2=7.18 $Y2=1.655
r193 12 44 52.2586 $w=2.99e-07 $l=2.85044e-07 $layer=POLY_cond $X=11.295
+ $Y=1.885 $X2=11.22 $Y2=1.635
r194 12 14 184.767 $w=1.5e-07 $l=5.75e-07 $layer=POLY_cond $X=11.295 $Y=1.885
+ $X2=11.295 $Y2=2.46
r195 8 44 38.5562 $w=2.99e-07 $l=1.92678e-07 $layer=POLY_cond $X=11.28 $Y=1.47
+ $X2=11.22 $Y2=1.635
r196 8 10 374.319 $w=1.5e-07 $l=7.3e-07 $layer=POLY_cond $X=11.28 $Y=1.47
+ $X2=11.28 $Y2=0.74
r197 5 35 54.7705 $w=3.67e-07 $l=3.43082e-07 $layer=POLY_cond $X=7.285 $Y=1.82
+ $X2=7.157 $Y2=1.535
r198 5 7 159.06 $w=1.5e-07 $l=4.95e-07 $layer=POLY_cond $X=7.285 $Y=1.82
+ $X2=7.285 $Y2=2.315
r199 1 35 39.0103 $w=3.67e-07 $l=2.25067e-07 $layer=POLY_cond $X=7.015 $Y=1.37
+ $X2=7.157 $Y2=1.535
r200 1 3 241 $w=1.5e-07 $l=4.7e-07 $layer=POLY_cond $X=7.015 $Y=1.37 $X2=7.015
+ $Y2=0.9
.ends

.subckt PM_SKY130_FD_SC_HS__SDFBBP_1%A_1092_96# 1 2 9 11 12 14 15 20 22 23 26 27
+ 28 31 32 35 37 39
c119 39 0 8.70027e-20 $X=7.75 $Y=1.255
c120 37 0 3.53193e-20 $X=6.04 $Y=1.74
c121 31 0 8.34275e-20 $X=7.75 $Y=1.42
c122 27 0 7.45928e-20 $X=7.585 $Y=1.155
c123 15 0 1.28158e-19 $X=5.955 $Y=2.37
r124 32 40 40.6903 $w=3.3e-07 $l=1.65e-07 $layer=POLY_cond $X=7.75 $Y=1.42
+ $X2=7.75 $Y2=1.585
r125 32 39 46.2115 $w=3.3e-07 $l=1.65e-07 $layer=POLY_cond $X=7.75 $Y=1.42
+ $X2=7.75 $Y2=1.255
r126 31 32 145.28 $w=1.7e-07 $l=1.7e-07 $layer=licon1_POLY $count=1 $X=7.75
+ $Y=1.42 $X2=7.75 $Y2=1.42
r127 29 31 6.28605 $w=3.28e-07 $l=1.8e-07 $layer=LI1_cond $X=7.75 $Y=1.24
+ $X2=7.75 $Y2=1.42
r128 27 29 7.76618 $w=1.7e-07 $l=2.03101e-07 $layer=LI1_cond $X=7.585 $Y=1.155
+ $X2=7.75 $Y2=1.24
r129 27 28 46.3209 $w=1.68e-07 $l=7.1e-07 $layer=LI1_cond $X=7.585 $Y=1.155
+ $X2=6.875 $Y2=1.155
r130 25 28 6.81649 $w=1.7e-07 $l=1.20208e-07 $layer=LI1_cond $X=6.79 $Y=1.24
+ $X2=6.875 $Y2=1.155
r131 25 26 27.0749 $w=1.68e-07 $l=4.15e-07 $layer=LI1_cond $X=6.79 $Y=1.24
+ $X2=6.79 $Y2=1.655
r132 24 37 1.34256 $w=1.7e-07 $l=8.5e-08 $layer=LI1_cond $X=6.125 $Y=1.74
+ $X2=6.04 $Y2=1.74
r133 23 26 6.81649 $w=1.7e-07 $l=1.20208e-07 $layer=LI1_cond $X=6.705 $Y=1.74
+ $X2=6.79 $Y2=1.655
r134 23 24 37.8396 $w=1.68e-07 $l=5.8e-07 $layer=LI1_cond $X=6.705 $Y=1.74
+ $X2=6.125 $Y2=1.74
r135 21 37 5.16603 $w=1.7e-07 $l=8.5e-08 $layer=LI1_cond $X=6.04 $Y=1.825
+ $X2=6.04 $Y2=1.74
r136 21 22 24.7914 $w=1.68e-07 $l=3.8e-07 $layer=LI1_cond $X=6.04 $Y=1.825
+ $X2=6.04 $Y2=2.205
r137 20 37 5.16603 $w=1.7e-07 $l=8.5e-08 $layer=LI1_cond $X=6.04 $Y=1.655
+ $X2=6.04 $Y2=1.74
r138 19 35 15.6194 $w=2.89e-07 $l=4.58432e-07 $layer=LI1_cond $X=6.04 $Y=0.855
+ $X2=5.67 $Y2=0.657
r139 19 20 52.1925 $w=1.68e-07 $l=8e-07 $layer=LI1_cond $X=6.04 $Y=0.855
+ $X2=6.04 $Y2=1.655
r140 15 22 7.76618 $w=3.3e-07 $l=2.03101e-07 $layer=LI1_cond $X=5.955 $Y=2.37
+ $X2=6.04 $Y2=2.205
r141 15 17 6.46067 $w=3.28e-07 $l=1.85e-07 $layer=LI1_cond $X=5.955 $Y=2.37
+ $X2=5.77 $Y2=2.37
r142 12 14 159.06 $w=1.5e-07 $l=4.95e-07 $layer=POLY_cond $X=7.825 $Y=1.82
+ $X2=7.825 $Y2=2.315
r143 11 12 36.0588 $w=1.8e-07 $l=9e-08 $layer=POLY_cond $X=7.825 $Y=1.73
+ $X2=7.825 $Y2=1.82
r144 11 40 56.3629 $w=1.8e-07 $l=1.45e-07 $layer=POLY_cond $X=7.825 $Y=1.73
+ $X2=7.825 $Y2=1.585
r145 9 39 123.713 $w=1.5e-07 $l=3.85e-07 $layer=POLY_cond $X=7.77 $Y=0.87
+ $X2=7.77 $Y2=1.255
r146 2 17 600 $w=1.7e-07 $l=3.72659e-07 $layer=licon1_PDIFF $count=1 $X=5.54
+ $Y=2.095 $X2=5.77 $Y2=2.37
r147 1 35 182 $w=1.7e-07 $l=2.84341e-07 $layer=licon1_NDIFF $count=1 $X=5.46
+ $Y=0.48 $X2=5.67 $Y2=0.655
.ends

.subckt PM_SKY130_FD_SC_HS__SDFBBP_1%A_1625_93# 1 2 9 11 12 14 16 17 19 20 22 24
+ 26 30 32 33 36 39 40 43 47 49
c137 49 0 8.34275e-20 $X=8.29 $Y=1.255
c138 36 0 8.70027e-20 $X=8.4 $Y=1.295
c139 32 0 1.79863e-19 $X=12.575 $Y=1.295
c140 20 0 1.08742e-19 $X=12.25 $Y=1.22
c141 12 0 2.04581e-20 $X=8.245 $Y=1.82
r142 47 50 40.6903 $w=3.3e-07 $l=1.65e-07 $layer=POLY_cond $X=8.29 $Y=1.42
+ $X2=8.29 $Y2=1.585
r143 47 49 46.2115 $w=3.3e-07 $l=1.65e-07 $layer=POLY_cond $X=8.29 $Y=1.42
+ $X2=8.29 $Y2=1.255
r144 40 56 16.2483 $w=4.43e-07 $l=5.9e-07 $layer=LI1_cond $X=12.8 $Y=1.295
+ $X2=12.8 $Y2=1.885
r145 40 43 145.28 $w=1.7e-07 $l=1.7e-07 $layer=licon1_POLY $count=1 $X=12.61
+ $Y=1.385 $X2=12.61 $Y2=1.385
r146 39 40 9.3 $w=1.7e-07 $l=1.7e-07 $layer=mcon $count=1 $X=12.72 $Y=1.295
+ $X2=12.72 $Y2=1.295
r147 36 47 145.28 $w=1.7e-07 $l=1.7e-07 $layer=licon1_POLY $count=1 $X=8.29
+ $Y=1.42 $X2=8.29 $Y2=1.42
r148 35 36 9.3 $w=1.7e-07 $l=1.7e-07 $layer=mcon $count=1 $X=8.4 $Y=1.295
+ $X2=8.4 $Y2=1.295
r149 33 35 0.115467 $w=2.3e-07 $l=1.45e-07 $layer=MET1_cond $X=8.545 $Y=1.295
+ $X2=8.4 $Y2=1.295
r150 32 39 0.115467 $w=2.3e-07 $l=1.45e-07 $layer=MET1_cond $X=12.575 $Y=1.295
+ $X2=12.72 $Y2=1.295
r151 32 33 4.98761 $w=1.4e-07 $l=4.03e-06 $layer=MET1_cond $X=12.575 $Y=1.295
+ $X2=8.545 $Y2=1.295
r152 27 30 7.45698 $w=3.38e-07 $l=2.2e-07 $layer=LI1_cond $X=12.81 $Y=0.84
+ $X2=13.03 $Y2=0.84
r153 26 40 7.99268 $w=4.43e-07 $l=1.19896e-07 $layer=LI1_cond $X=12.81 $Y=1.18
+ $X2=12.8 $Y2=1.295
r154 25 27 4.80115 $w=1.7e-07 $l=1.7e-07 $layer=LI1_cond $X=12.81 $Y=1.01
+ $X2=12.81 $Y2=0.84
r155 25 26 11.0909 $w=1.68e-07 $l=1.7e-07 $layer=LI1_cond $X=12.81 $Y=1.01
+ $X2=12.81 $Y2=1.18
r156 23 43 49.8355 $w=3.3e-07 $l=2.85e-07 $layer=POLY_cond $X=12.325 $Y=1.385
+ $X2=12.61 $Y2=1.385
r157 23 24 3.90195 $w=3.3e-07 $l=1.8735e-07 $layer=POLY_cond $X=12.325 $Y=1.385
+ $X2=12.145 $Y2=1.4
r158 20 24 34.7346 $w=1.65e-07 $l=2.26495e-07 $layer=POLY_cond $X=12.25 $Y=1.22
+ $X2=12.145 $Y2=1.4
r159 20 22 154.24 $w=1.5e-07 $l=4.8e-07 $layer=POLY_cond $X=12.25 $Y=1.22
+ $X2=12.25 $Y2=0.74
r160 17 19 184.767 $w=1.5e-07 $l=5.75e-07 $layer=POLY_cond $X=12.235 $Y=1.885
+ $X2=12.235 $Y2=2.46
r161 16 17 36.0588 $w=1.8e-07 $l=9e-08 $layer=POLY_cond $X=12.235 $Y=1.795
+ $X2=12.235 $Y2=1.885
r162 15 24 34.7346 $w=1.65e-07 $l=1.89737e-07 $layer=POLY_cond $X=12.235 $Y=1.55
+ $X2=12.145 $Y2=1.4
r163 15 16 95.2339 $w=1.8e-07 $l=2.45e-07 $layer=POLY_cond $X=12.235 $Y=1.55
+ $X2=12.235 $Y2=1.795
r164 12 14 159.06 $w=1.5e-07 $l=4.95e-07 $layer=POLY_cond $X=8.245 $Y=1.82
+ $X2=8.245 $Y2=2.315
r165 11 12 36.0588 $w=1.8e-07 $l=9e-08 $layer=POLY_cond $X=8.245 $Y=1.73
+ $X2=8.245 $Y2=1.82
r166 11 50 56.3629 $w=1.8e-07 $l=1.45e-07 $layer=POLY_cond $X=8.245 $Y=1.73
+ $X2=8.245 $Y2=1.585
r167 9 49 123.713 $w=1.5e-07 $l=3.85e-07 $layer=POLY_cond $X=8.2 $Y=0.87 $X2=8.2
+ $Y2=1.255
r168 2 56 600 $w=1.7e-07 $l=1.99687e-07 $layer=licon1_PDIFF $count=1 $X=12.86
+ $Y=1.74 $X2=12.99 $Y2=1.885
r169 1 30 182 $w=1.7e-07 $l=2.10357e-07 $layer=licon1_NDIFF $count=1 $X=12.885
+ $Y=0.69 $X2=13.03 $Y2=0.84
.ends

.subckt PM_SKY130_FD_SC_HS__SDFBBP_1%A_622_98# 1 2 7 9 10 12 13 16 18 19 20 21
+ 22 23 25 26 27 28 30 31 33 36 39 40 41 44 47 48 49 52 54 57 60 65 66 69 70 72
+ 74 78 81 82 87
c244 78 0 4.76468e-20 $X=4.4 $Y=1.505
c245 40 0 4.96599e-20 $X=4.875 $Y=1.415
c246 33 0 2.14452e-19 $X=9.315 $Y=2.025
c247 31 0 1.28158e-19 $X=9.225 $Y=3.15
c248 28 0 1.35332e-19 $X=6.03 $Y=2.59
c249 23 0 1.65947e-19 $X=5.385 $Y=0.405
r250 81 82 8.63679 $w=3.28e-07 $l=1.7e-07 $layer=LI1_cond $X=9.435 $Y=1.335
+ $X2=9.435 $Y2=1.505
r251 79 83 14.6554 $w=2.96e-07 $l=9e-08 $layer=POLY_cond $X=4.4 $Y=1.505 $X2=4.4
+ $Y2=1.415
r252 78 79 145.28 $w=1.7e-07 $l=1.7e-07 $layer=licon1_POLY $count=1 $X=4.4
+ $Y=1.505 $X2=4.4 $Y2=1.505
r253 75 78 8.3814 $w=3.28e-07 $l=2.4e-07 $layer=LI1_cond $X=4.16 $Y=1.505
+ $X2=4.4 $Y2=1.505
r254 70 87 46.2115 $w=3.3e-07 $l=1.65e-07 $layer=POLY_cond $X=10.32 $Y=1.065
+ $X2=10.32 $Y2=0.9
r255 69 70 145.28 $w=1.7e-07 $l=1.7e-07 $layer=licon1_POLY $count=1 $X=10.32
+ $Y=1.065 $X2=10.32 $Y2=1.065
r256 67 69 22.3504 $w=3.28e-07 $l=6.4e-07 $layer=LI1_cond $X=10.32 $Y=0.425
+ $X2=10.32 $Y2=1.065
r257 65 67 7.76618 $w=1.7e-07 $l=2.03101e-07 $layer=LI1_cond $X=10.155 $Y=0.34
+ $X2=10.32 $Y2=0.425
r258 65 66 35.2299 $w=1.68e-07 $l=5.4e-07 $layer=LI1_cond $X=10.155 $Y=0.34
+ $X2=9.615 $Y2=0.34
r259 63 66 6.81649 $w=1.7e-07 $l=1.20208e-07 $layer=LI1_cond $X=9.53 $Y=0.425
+ $X2=9.615 $Y2=0.34
r260 63 81 59.369 $w=1.68e-07 $l=9.1e-07 $layer=LI1_cond $X=9.53 $Y=0.425
+ $X2=9.53 $Y2=1.335
r261 60 82 9.42908 $w=3.28e-07 $l=2.7e-07 $layer=LI1_cond $X=9.42 $Y=1.775
+ $X2=9.42 $Y2=1.505
r262 60 61 145.28 $w=1.7e-07 $l=1.7e-07 $layer=licon1_POLY $count=1 $X=9.42
+ $Y=1.775 $X2=9.42 $Y2=1.775
r263 56 75 4.62375 $w=1.7e-07 $l=1.65e-07 $layer=LI1_cond $X=4.16 $Y=1.67
+ $X2=4.16 $Y2=1.505
r264 56 57 11.0909 $w=1.68e-07 $l=1.7e-07 $layer=LI1_cond $X=4.16 $Y=1.67
+ $X2=4.16 $Y2=1.84
r265 55 74 8.61065 $w=1.7e-07 $l=1.65e-07 $layer=LI1_cond $X=3.845 $Y=1.925
+ $X2=3.68 $Y2=1.925
r266 54 57 6.81649 $w=1.7e-07 $l=1.20208e-07 $layer=LI1_cond $X=4.075 $Y=1.925
+ $X2=4.16 $Y2=1.84
r267 54 55 15.0053 $w=1.68e-07 $l=2.3e-07 $layer=LI1_cond $X=4.075 $Y=1.925
+ $X2=3.845 $Y2=1.925
r268 50 74 0.89609 $w=3.3e-07 $l=8.5e-08 $layer=LI1_cond $X=3.68 $Y=2.01
+ $X2=3.68 $Y2=1.925
r269 50 52 28.1126 $w=3.28e-07 $l=8.05e-07 $layer=LI1_cond $X=3.68 $Y=2.01
+ $X2=3.68 $Y2=2.815
r270 48 74 8.61065 $w=1.7e-07 $l=1.65e-07 $layer=LI1_cond $X=3.515 $Y=1.925
+ $X2=3.68 $Y2=1.925
r271 48 49 16.6364 $w=1.68e-07 $l=2.55e-07 $layer=LI1_cond $X=3.515 $Y=1.925
+ $X2=3.26 $Y2=1.925
r272 47 49 6.81649 $w=1.7e-07 $l=1.20208e-07 $layer=LI1_cond $X=3.175 $Y=1.84
+ $X2=3.26 $Y2=1.925
r273 47 72 54.1497 $w=1.68e-07 $l=8.3e-07 $layer=LI1_cond $X=3.175 $Y=1.84
+ $X2=3.175 $Y2=1.01
r274 42 72 6.94937 $w=2.48e-07 $l=1.25e-07 $layer=LI1_cond $X=3.215 $Y=0.885
+ $X2=3.215 $Y2=1.01
r275 42 44 3.91831 $w=2.48e-07 $l=8.5e-08 $layer=LI1_cond $X=3.215 $Y=0.885
+ $X2=3.215 $Y2=0.8
r276 39 87 102.827 $w=1.5e-07 $l=3.2e-07 $layer=POLY_cond $X=10.23 $Y=0.58
+ $X2=10.23 $Y2=0.9
r277 34 36 253.819 $w=1.5e-07 $l=4.95e-07 $layer=POLY_cond $X=9.315 $Y=3.015
+ $X2=9.315 $Y2=2.52
r278 33 61 51.2457 $w=3.23e-07 $l=2.91548e-07 $layer=POLY_cond $X=9.315 $Y=2.025
+ $X2=9.405 $Y2=1.775
r279 33 36 253.819 $w=1.5e-07 $l=4.95e-07 $layer=POLY_cond $X=9.315 $Y=2.025
+ $X2=9.315 $Y2=2.52
r280 32 41 23.6879 $w=1.5e-07 $l=9e-08 $layer=POLY_cond $X=6.12 $Y=3.15 $X2=6.03
+ $Y2=3.15
r281 31 34 26.9307 $w=1.5e-07 $l=1.74284e-07 $layer=POLY_cond $X=9.225 $Y=3.15
+ $X2=9.315 $Y2=3.015
r282 31 32 1592.14 $w=1.5e-07 $l=3.105e-06 $layer=POLY_cond $X=9.225 $Y=3.15
+ $X2=6.12 $Y2=3.15
r283 28 30 91.58 $w=1.5e-07 $l=2.85e-07 $layer=POLY_cond $X=6.03 $Y=2.59
+ $X2=6.03 $Y2=2.305
r284 27 41 2.7459 $w=1.8e-07 $l=7.5e-08 $layer=POLY_cond $X=6.03 $Y=3.075
+ $X2=6.03 $Y2=3.15
r285 26 28 36.0588 $w=1.8e-07 $l=9e-08 $layer=POLY_cond $X=6.03 $Y=2.68 $X2=6.03
+ $Y2=2.59
r286 26 27 153.54 $w=1.8e-07 $l=3.95e-07 $layer=POLY_cond $X=6.03 $Y=2.68
+ $X2=6.03 $Y2=3.075
r287 23 25 91.58 $w=1.5e-07 $l=2.85e-07 $layer=POLY_cond $X=5.385 $Y=0.405
+ $X2=5.385 $Y2=0.69
r288 21 41 23.6879 $w=1.5e-07 $l=9e-08 $layer=POLY_cond $X=5.94 $Y=3.15 $X2=6.03
+ $Y2=3.15
r289 21 22 507.638 $w=1.5e-07 $l=9.9e-07 $layer=POLY_cond $X=5.94 $Y=3.15
+ $X2=4.95 $Y2=3.15
r290 19 23 26.9307 $w=1.5e-07 $l=1.06066e-07 $layer=POLY_cond $X=5.31 $Y=0.33
+ $X2=5.385 $Y2=0.405
r291 19 20 184.596 $w=1.5e-07 $l=3.6e-07 $layer=POLY_cond $X=5.31 $Y=0.33
+ $X2=4.95 $Y2=0.33
r292 18 22 26.9307 $w=1.5e-07 $l=1.06066e-07 $layer=POLY_cond $X=4.875 $Y=3.075
+ $X2=4.95 $Y2=3.15
r293 17 40 20.4101 $w=1.5e-07 $l=7.5e-08 $layer=POLY_cond $X=4.875 $Y=1.49
+ $X2=4.875 $Y2=1.415
r294 17 18 812.734 $w=1.5e-07 $l=1.585e-06 $layer=POLY_cond $X=4.875 $Y=1.49
+ $X2=4.875 $Y2=3.075
r295 16 40 20.4101 $w=1.5e-07 $l=7.5e-08 $layer=POLY_cond $X=4.875 $Y=1.34
+ $X2=4.875 $Y2=1.415
r296 15 20 26.9307 $w=1.5e-07 $l=1.06066e-07 $layer=POLY_cond $X=4.875 $Y=0.405
+ $X2=4.95 $Y2=0.33
r297 15 16 479.436 $w=1.5e-07 $l=9.35e-07 $layer=POLY_cond $X=4.875 $Y=0.405
+ $X2=4.875 $Y2=1.34
r298 14 83 18.6531 $w=1.5e-07 $l=1.65e-07 $layer=POLY_cond $X=4.565 $Y=1.415
+ $X2=4.4 $Y2=1.415
r299 13 40 5.30422 $w=1.5e-07 $l=7.5e-08 $layer=POLY_cond $X=4.8 $Y=1.415
+ $X2=4.875 $Y2=1.415
r300 13 14 120.5 $w=1.5e-07 $l=2.35e-07 $layer=POLY_cond $X=4.8 $Y=1.415
+ $X2=4.565 $Y2=1.415
r301 10 79 54.0414 $w=2.96e-07 $l=2.81603e-07 $layer=POLY_cond $X=4.355 $Y=1.765
+ $X2=4.4 $Y2=1.505
r302 10 12 204.047 $w=1.5e-07 $l=6.35e-07 $layer=POLY_cond $X=4.355 $Y=1.765
+ $X2=4.355 $Y2=2.4
r303 7 83 23.9164 $w=2.96e-07 $l=1.21861e-07 $layer=POLY_cond $X=4.31 $Y=1.34
+ $X2=4.4 $Y2=1.415
r304 7 9 154.24 $w=1.5e-07 $l=4.8e-07 $layer=POLY_cond $X=4.31 $Y=1.34 $X2=4.31
+ $Y2=0.86
r305 2 74 400 $w=1.7e-07 $l=2.26164e-07 $layer=licon1_PDIFF $count=1 $X=3.535
+ $Y=1.84 $X2=3.68 $Y2=2.005
r306 2 52 400 $w=1.7e-07 $l=1.04499e-06 $layer=licon1_PDIFF $count=1 $X=3.535
+ $Y=1.84 $X2=3.68 $Y2=2.815
r307 1 44 182 $w=1.7e-07 $l=3.75566e-07 $layer=licon1_NDIFF $count=1 $X=3.11
+ $Y=0.49 $X2=3.255 $Y2=0.8
.ends

.subckt PM_SKY130_FD_SC_HS__SDFBBP_1%A_877_98# 1 2 7 9 10 15 16 17 21 22 24 29
+ 31 32 38 41 46 50 51 52
c150 46 0 1.3428e-19 $X=5.325 $Y=1.53
c151 32 0 3.16672e-20 $X=4.735 $Y=1.085
c152 29 0 2.56036e-20 $X=9.87 $Y=1.295
c153 15 0 2.61122e-19 $X=5.885 $Y=0.69
c154 10 0 1.35332e-19 $X=5.81 $Y=1.44
c155 7 0 1.40154e-19 $X=5.465 $Y=2.02
r156 50 51 9.45624 $w=4.88e-07 $l=1.65e-07 $layer=LI1_cond $X=4.66 $Y=2.005
+ $X2=4.66 $Y2=1.84
r157 47 53 16.0667 $w=2.7e-07 $l=9e-08 $layer=POLY_cond $X=5.357 $Y=1.53
+ $X2=5.357 $Y2=1.44
r158 46 47 145.28 $w=1.7e-07 $l=1.7e-07 $layer=licon1_POLY $count=1 $X=5.325
+ $Y=1.53 $X2=5.325 $Y2=1.53
r159 44 52 0.89609 $w=3.3e-07 $l=8.5e-08 $layer=LI1_cond $X=4.905 $Y=1.53
+ $X2=4.82 $Y2=1.53
r160 44 46 14.6675 $w=3.28e-07 $l=4.2e-07 $layer=LI1_cond $X=4.905 $Y=1.53
+ $X2=5.325 $Y2=1.53
r161 42 52 8.61065 $w=1.7e-07 $l=1.65e-07 $layer=LI1_cond $X=4.82 $Y=1.695
+ $X2=4.82 $Y2=1.53
r162 42 51 9.45989 $w=1.68e-07 $l=1.45e-07 $layer=LI1_cond $X=4.82 $Y=1.695
+ $X2=4.82 $Y2=1.84
r163 41 52 8.61065 $w=1.7e-07 $l=1.65e-07 $layer=LI1_cond $X=4.82 $Y=1.365
+ $X2=4.82 $Y2=1.53
r164 40 41 12.7219 $w=1.68e-07 $l=1.95e-07 $layer=LI1_cond $X=4.82 $Y=1.17
+ $X2=4.82 $Y2=1.365
r165 36 50 1.95278 $w=4.88e-07 $l=8e-08 $layer=LI1_cond $X=4.66 $Y=2.085
+ $X2=4.66 $Y2=2.005
r166 36 38 17.8191 $w=4.88e-07 $l=7.3e-07 $layer=LI1_cond $X=4.66 $Y=2.085
+ $X2=4.66 $Y2=2.815
r167 32 40 6.81649 $w=1.7e-07 $l=1.20208e-07 $layer=LI1_cond $X=4.735 $Y=1.085
+ $X2=4.82 $Y2=1.17
r168 32 34 12.0695 $w=1.68e-07 $l=1.85e-07 $layer=LI1_cond $X=4.735 $Y=1.085
+ $X2=4.55 $Y2=1.085
r169 27 29 94.8617 $w=1.5e-07 $l=1.85e-07 $layer=POLY_cond $X=9.685 $Y=1.295
+ $X2=9.87 $Y2=1.295
r170 25 29 2.83073 $w=1.5e-07 $l=7.5e-08 $layer=POLY_cond $X=9.87 $Y=1.37
+ $X2=9.87 $Y2=1.295
r171 25 31 415.34 $w=1.5e-07 $l=8.1e-07 $layer=POLY_cond $X=9.87 $Y=1.37
+ $X2=9.87 $Y2=2.18
r172 22 31 103.008 $w=1.8e-07 $l=2.65e-07 $layer=POLY_cond $X=9.855 $Y=2.445
+ $X2=9.855 $Y2=2.18
r173 22 24 91.58 $w=1.5e-07 $l=2.85e-07 $layer=POLY_cond $X=9.855 $Y=2.445
+ $X2=9.855 $Y2=2.73
r174 19 27 2.83073 $w=1.5e-07 $l=7.5e-08 $layer=POLY_cond $X=9.685 $Y=1.22
+ $X2=9.685 $Y2=1.295
r175 19 21 179.468 $w=1.5e-07 $l=3.5e-07 $layer=POLY_cond $X=9.685 $Y=1.22
+ $X2=9.685 $Y2=0.87
r176 18 21 315.351 $w=1.5e-07 $l=6.15e-07 $layer=POLY_cond $X=9.685 $Y=0.255
+ $X2=9.685 $Y2=0.87
r177 16 18 26.9307 $w=1.5e-07 $l=1.06066e-07 $layer=POLY_cond $X=9.61 $Y=0.18
+ $X2=9.685 $Y2=0.255
r178 16 17 1871.6 $w=1.5e-07 $l=3.65e-06 $layer=POLY_cond $X=9.61 $Y=0.18
+ $X2=5.96 $Y2=0.18
r179 13 15 346.117 $w=1.5e-07 $l=6.75e-07 $layer=POLY_cond $X=5.885 $Y=1.365
+ $X2=5.885 $Y2=0.69
r180 12 17 26.9307 $w=1.5e-07 $l=1.06066e-07 $layer=POLY_cond $X=5.885 $Y=0.255
+ $X2=5.96 $Y2=0.18
r181 12 15 223.053 $w=1.5e-07 $l=4.35e-07 $layer=POLY_cond $X=5.885 $Y=0.255
+ $X2=5.885 $Y2=0.69
r182 11 53 16.5046 $w=1.5e-07 $l=1.68e-07 $layer=POLY_cond $X=5.525 $Y=1.44
+ $X2=5.357 $Y2=1.44
r183 10 13 26.9307 $w=1.5e-07 $l=1.06066e-07 $layer=POLY_cond $X=5.81 $Y=1.44
+ $X2=5.885 $Y2=1.365
r184 10 11 146.138 $w=1.5e-07 $l=2.85e-07 $layer=POLY_cond $X=5.81 $Y=1.44
+ $X2=5.525 $Y2=1.44
r185 7 47 96.9211 $w=2.7e-07 $l=5.41313e-07 $layer=POLY_cond $X=5.465 $Y=2.02
+ $X2=5.357 $Y2=1.53
r186 7 9 126.927 $w=1.5e-07 $l=3.95e-07 $layer=POLY_cond $X=5.465 $Y=2.02
+ $X2=5.465 $Y2=2.415
r187 2 50 400 $w=1.7e-07 $l=2.2798e-07 $layer=licon1_PDIFF $count=1 $X=4.43
+ $Y=1.84 $X2=4.58 $Y2=2.005
r188 2 38 400 $w=1.7e-07 $l=1.04732e-06 $layer=licon1_PDIFF $count=1 $X=4.43
+ $Y=1.84 $X2=4.58 $Y2=2.815
r189 1 34 182 $w=1.7e-07 $l=6.72458e-07 $layer=licon1_NDIFF $count=1 $X=4.385
+ $Y=0.49 $X2=4.55 $Y2=1.085
.ends

.subckt PM_SKY130_FD_SC_HS__SDFBBP_1%A_2037_442# 1 2 7 9 12 14 16 17 19 20 23 24
+ 26 27 28 30 31 33 34 37 42 43 44 46 48 49 54 58 64
r182 65 70 14.9072 $w=2.91e-07 $l=9e-08 $layer=POLY_cond $X=13.75 $Y=1.385
+ $X2=13.75 $Y2=1.295
r183 64 65 145.28 $w=1.7e-07 $l=1.7e-07 $layer=licon1_POLY $count=1 $X=13.75
+ $Y=1.385 $X2=13.75 $Y2=1.385
r184 61 64 4.71454 $w=3.28e-07 $l=1.35e-07 $layer=LI1_cond $X=13.615 $Y=1.385
+ $X2=13.75 $Y2=1.385
r185 58 60 9.98259 $w=3.43e-07 $l=2.1e-07 $layer=LI1_cond $X=12.042 $Y=0.8
+ $X2=12.042 $Y2=1.01
r186 54 56 15.3251 $w=4.06e-07 $l=5.1e-07 $layer=LI1_cond $X=11.62 $Y=2.23
+ $X2=12.13 $Y2=2.23