* File: sky130_fd_sc_hs__sdfrtp_4.pex.spice
* Created: Tue Sep  1 20:22:51 2020
* Program "Calibre xRC"
* Version "v2018.4_34.26"
* Nominal Temperature: 27C
* Circuit Temperature: 27C
* 
.subckt PM_SKY130_FD_SC_HS__SDFRTP_4%A_27_74# 1 2 7 9 11 12 14 17 20 23 27 30 32
+ 33 35 40
c82 35 0 1.02897e-20 $X=2.54 $Y=1.995
c83 9 0 3.56444e-20 $X=1.485 $Y=0.935
r84 35 38 3.31764 $w=3.28e-07 $l=9.5e-08 $layer=LI1_cond $X=2.54 $Y=1.995
+ $X2=2.54 $Y2=2.09
r85 35 36 145.28 $w=1.7e-07 $l=1.7e-07 $layer=licon1_POLY $count=1 $X=2.54
+ $Y=1.995 $X2=2.54 $Y2=1.995
r86 31 33 2.76166 $w=1.7e-07 $l=1.65e-07 $layer=LI1_cond $X=0.445 $Y=2.09
+ $X2=0.28 $Y2=2.09
r87 30 38 4.62375 $w=1.7e-07 $l=1.65e-07 $layer=LI1_cond $X=2.375 $Y=2.09
+ $X2=2.54 $Y2=2.09
r88 30 31 125.914 $w=1.68e-07 $l=1.93e-06 $layer=LI1_cond $X=2.375 $Y=2.09
+ $X2=0.445 $Y2=2.09
r89 28 40 15.7375 $w=3.3e-07 $l=9e-08 $layer=POLY_cond $X=0.975 $Y=1.1 $X2=0.975
+ $Y2=1.01
r90 27 28 145.28 $w=1.7e-07 $l=1.7e-07 $layer=licon1_POLY $count=1 $X=0.975
+ $Y=1.1 $X2=0.975 $Y2=1.1
r91 25 32 0.221902 $w=3.3e-07 $l=1.25e-07 $layer=LI1_cond $X=0.365 $Y=1.1
+ $X2=0.24 $Y2=1.1
r92 25 27 21.3027 $w=3.28e-07 $l=6.1e-07 $layer=LI1_cond $X=0.365 $Y=1.1
+ $X2=0.975 $Y2=1.1
r93 21 33 3.70735 $w=2.5e-07 $l=8.5e-08 $layer=LI1_cond $X=0.28 $Y=2.175
+ $X2=0.28 $Y2=2.09
r94 21 23 10.1275 $w=3.28e-07 $l=2.9e-07 $layer=LI1_cond $X=0.28 $Y=2.175
+ $X2=0.28 $Y2=2.465
r95 20 33 3.70735 $w=2.5e-07 $l=1.18427e-07 $layer=LI1_cond $X=0.2 $Y=2.005
+ $X2=0.28 $Y2=2.09
r96 19 32 7.38875 $w=2.1e-07 $l=1.83916e-07 $layer=LI1_cond $X=0.2 $Y=1.265
+ $X2=0.24 $Y2=1.1
r97 19 20 48.2781 $w=1.68e-07 $l=7.4e-07 $layer=LI1_cond $X=0.2 $Y=1.265 $X2=0.2
+ $Y2=2.005
r98 15 32 7.38875 $w=2.1e-07 $l=1.65e-07 $layer=LI1_cond $X=0.24 $Y=0.935
+ $X2=0.24 $Y2=1.1
r99 15 17 16.3647 $w=2.48e-07 $l=3.55e-07 $layer=LI1_cond $X=0.24 $Y=0.935
+ $X2=0.24 $Y2=0.58
r100 12 36 52.2586 $w=2.99e-07 $l=2.7157e-07 $layer=POLY_cond $X=2.495 $Y=2.245
+ $X2=2.54 $Y2=1.995
r101 12 14 126.927 $w=1.5e-07 $l=3.95e-07 $layer=POLY_cond $X=2.495 $Y=2.245
+ $X2=2.495 $Y2=2.64
r102 9 11 102.827 $w=1.5e-07 $l=3.2e-07 $layer=POLY_cond $X=1.485 $Y=0.935
+ $X2=1.485 $Y2=0.615
r103 8 40 21.2229 $w=1.5e-07 $l=1.65e-07 $layer=POLY_cond $X=1.14 $Y=1.01
+ $X2=0.975 $Y2=1.01
r104 7 9 26.9307 $w=1.5e-07 $l=1.06066e-07 $layer=POLY_cond $X=1.41 $Y=1.01
+ $X2=1.485 $Y2=0.935
r105 7 8 138.447 $w=1.5e-07 $l=2.7e-07 $layer=POLY_cond $X=1.41 $Y=1.01 $X2=1.14
+ $Y2=1.01
r106 2 23 300 $w=1.7e-07 $l=2.05061e-07 $layer=licon1_PDIFF $count=2 $X=0.135
+ $Y=2.32 $X2=0.28 $Y2=2.465
r107 1 17 182 $w=1.7e-07 $l=2.73038e-07 $layer=licon1_NDIFF $count=1 $X=0.135
+ $Y=0.37 $X2=0.28 $Y2=0.58
.ends

.subckt PM_SKY130_FD_SC_HS__SDFRTP_4%SCE 2 5 7 9 11 12 14 15 17 20 21 22 25 30
+ 31 32 44 53 55
r89 44 53 1.90404 $w=3.43e-07 $l=5.7e-08 $layer=LI1_cond $X=1.623 $Y=1.662
+ $X2=1.68 $Y2=1.662
r90 41 42 96.8533 $w=1.7e-07 $l=2.55e-07 $layer=licon1_POLY $count=1 $X=1.45
+ $Y=1.67 $X2=1.45 $Y2=1.67
r91 38 41 118.906 $w=3.3e-07 $l=6.8e-07 $layer=POLY_cond $X=0.77 $Y=1.67
+ $X2=1.45 $Y2=1.67
r92 32 55 6.34154 $w=3.43e-07 $l=1.01e-07 $layer=LI1_cond $X=1.694 $Y=1.662
+ $X2=1.795 $Y2=1.662
r93 32 53 0.467658 $w=3.43e-07 $l=1.4e-08 $layer=LI1_cond $X=1.694 $Y=1.662
+ $X2=1.68 $Y2=1.662
r94 32 44 0.467658 $w=3.43e-07 $l=1.4e-08 $layer=LI1_cond $X=1.609 $Y=1.662
+ $X2=1.623 $Y2=1.662
r95 32 42 5.31126 $w=3.43e-07 $l=1.59e-07 $layer=LI1_cond $X=1.609 $Y=1.662
+ $X2=1.45 $Y2=1.662
r96 31 42 8.35104 $w=3.43e-07 $l=2.5e-07 $layer=LI1_cond $X=1.2 $Y=1.662
+ $X2=1.45 $Y2=1.662
r97 30 31 16.034 $w=3.43e-07 $l=4.8e-07 $layer=LI1_cond $X=0.72 $Y=1.662 $X2=1.2
+ $Y2=1.662
r98 30 38 96.8533 $w=1.7e-07 $l=2.55e-07 $layer=licon1_POLY $count=1 $X=0.77
+ $Y=1.67 $X2=0.77 $Y2=1.67
r99 25 28 5.23838 $w=3.28e-07 $l=1.5e-07 $layer=LI1_cond $X=2.57 $Y=1.425
+ $X2=2.57 $Y2=1.575
r100 25 26 145.28 $w=1.7e-07 $l=1.7e-07 $layer=licon1_POLY $count=1 $X=2.57
+ $Y=1.425 $X2=2.57 $Y2=1.425
r101 22 28 4.62375 $w=1.7e-07 $l=1.65e-07 $layer=LI1_cond $X=2.405 $Y=1.575
+ $X2=2.57 $Y2=1.575
r102 22 55 39.7968 $w=1.68e-07 $l=6.1e-07 $layer=LI1_cond $X=2.405 $Y=1.575
+ $X2=1.795 $Y2=1.575
r103 21 41 14.8632 $w=3.3e-07 $l=8.5e-08 $layer=POLY_cond $X=1.535 $Y=1.67
+ $X2=1.45 $Y2=1.67
r104 19 38 30.6007 $w=3.3e-07 $l=1.75e-07 $layer=POLY_cond $X=0.595 $Y=1.67
+ $X2=0.77 $Y2=1.67
r105 19 20 3.90195 $w=3.3e-07 $l=9e-08 $layer=POLY_cond $X=0.595 $Y=1.67
+ $X2=0.505 $Y2=1.67
r106 15 26 73.0131 $w=2.94e-07 $l=4.44972e-07 $layer=POLY_cond $X=2.785 $Y=1.05
+ $X2=2.632 $Y2=1.425
r107 15 17 223.053 $w=1.5e-07 $l=4.35e-07 $layer=POLY_cond $X=2.785 $Y=1.05
+ $X2=2.785 $Y2=0.615
r108 12 14 126.927 $w=1.5e-07 $l=3.95e-07 $layer=POLY_cond $X=1.625 $Y=2.245
+ $X2=1.625 $Y2=2.64
r109 11 12 36.0588 $w=1.8e-07 $l=9e-08 $layer=POLY_cond $X=1.625 $Y=2.155
+ $X2=1.625 $Y2=2.245
r110 10 21 30.0773 $w=3.3e-07 $l=2.05122e-07 $layer=POLY_cond $X=1.625 $Y=1.835
+ $X2=1.535 $Y2=1.67
r111 10 11 124.387 $w=1.8e-07 $l=3.2e-07 $layer=POLY_cond $X=1.625 $Y=1.835
+ $X2=1.625 $Y2=2.155
r112 7 9 126.927 $w=1.5e-07 $l=3.95e-07 $layer=POLY_cond $X=0.505 $Y=2.245
+ $X2=0.505 $Y2=2.64
r113 3 20 34.7346 $w=1.65e-07 $l=1.69926e-07 $layer=POLY_cond $X=0.495 $Y=1.505
+ $X2=0.505 $Y2=1.67
r114 3 5 474.309 $w=1.5e-07 $l=9.25e-07 $layer=POLY_cond $X=0.495 $Y=1.505
+ $X2=0.495 $Y2=0.58
r115 2 7 36.0588 $w=1.8e-07 $l=9e-08 $layer=POLY_cond $X=0.505 $Y=2.155
+ $X2=0.505 $Y2=2.245
r116 1 20 34.7346 $w=1.65e-07 $l=1.65e-07 $layer=POLY_cond $X=0.505 $Y=1.835
+ $X2=0.505 $Y2=1.67
r117 1 2 124.387 $w=1.8e-07 $l=3.2e-07 $layer=POLY_cond $X=0.505 $Y=1.835
+ $X2=0.505 $Y2=2.155
.ends

.subckt PM_SKY130_FD_SC_HS__SDFRTP_4%D 3 5 6 8 9 12 13 14
c46 6 0 1.02897e-20 $X=2.045 $Y=2.245
r47 12 15 40.9207 $w=3.65e-07 $l=1.65e-07 $layer=POLY_cond $X=1.952 $Y=1.1
+ $X2=1.952 $Y2=1.265
r48 12 14 46.6671 $w=3.65e-07 $l=1.65e-07 $layer=POLY_cond $X=1.952 $Y=1.1
+ $X2=1.952 $Y2=0.935
r49 12 13 145.28 $w=1.7e-07 $l=1.7e-07 $layer=licon1_POLY $count=1 $X=1.935
+ $Y=1.1 $X2=1.935 $Y2=1.1
r50 9 13 6.7033 $w=4.53e-07 $l=2.55e-07 $layer=LI1_cond $X=1.68 $Y=1.037
+ $X2=1.935 $Y2=1.037
r51 6 8 126.927 $w=1.5e-07 $l=3.95e-07 $layer=POLY_cond $X=2.045 $Y=2.245
+ $X2=2.045 $Y2=2.64
r52 5 6 36.0588 $w=1.8e-07 $l=9e-08 $layer=POLY_cond $X=2.045 $Y=2.155 $X2=2.045
+ $Y2=2.245
r53 5 15 345.952 $w=1.8e-07 $l=8.9e-07 $layer=POLY_cond $X=2.045 $Y=2.155
+ $X2=2.045 $Y2=1.265
r54 3 14 102.827 $w=1.5e-07 $l=3.2e-07 $layer=POLY_cond $X=2 $Y=0.615 $X2=2
+ $Y2=0.935
.ends

.subckt PM_SKY130_FD_SC_HS__SDFRTP_4%SCD 1 3 6 10 11 12 16
c46 6 0 3.56444e-20 $X=3.175 $Y=0.615
r47 11 12 15.0167 $w=3.28e-07 $l=4.3e-07 $layer=LI1_cond $X=3.11 $Y=1.605
+ $X2=3.11 $Y2=2.035
r48 11 16 72.64 $w=1.7e-07 $l=3.4e-07 $layer=licon1_POLY $count=2 $X=3.11
+ $Y=1.605 $X2=3.11 $Y2=1.605
r49 10 16 59.4528 $w=3.3e-07 $l=3.4e-07 $layer=POLY_cond $X=3.11 $Y=1.945
+ $X2=3.11 $Y2=1.605
r50 9 16 42.4377 $w=3.3e-07 $l=1.65e-07 $layer=POLY_cond $X=3.11 $Y=1.44
+ $X2=3.11 $Y2=1.605
r51 6 9 423.032 $w=1.5e-07 $l=8.25e-07 $layer=POLY_cond $X=3.175 $Y=0.615
+ $X2=3.175 $Y2=1.44
r52 1 10 55.1908 $w=2.62e-07 $l=3.3541e-07 $layer=POLY_cond $X=3.035 $Y=2.245
+ $X2=3.11 $Y2=1.945
r53 1 3 126.927 $w=1.5e-07 $l=3.95e-07 $layer=POLY_cond $X=3.035 $Y=2.245
+ $X2=3.035 $Y2=2.64
.ends

.subckt PM_SKY130_FD_SC_HS__SDFRTP_4%RESET_B 3 5 7 8 10 11 12 13 15 17 20 23 24
+ 26 27 28 29 30 37 38 40 43 45 53 54
c206 45 0 1.27018e-19 $X=7.67 $Y=2.03
c207 3 0 7.92039e-20 $X=3.605 $Y=0.615
r208 52 54 33.2236 $w=3.3e-07 $l=1.9e-07 $layer=POLY_cond $X=10.75 $Y=1.985
+ $X2=10.94 $Y2=1.985
r209 52 53 145.28 $w=1.7e-07 $l=1.7e-07 $layer=licon1_POLY $count=1 $X=10.75
+ $Y=1.985 $X2=10.75 $Y2=1.985
r210 49 52 20.9834 $w=3.3e-07 $l=1.2e-07 $layer=POLY_cond $X=10.63 $Y=1.985
+ $X2=10.75 $Y2=1.985
r211 45 47 41.7374 $w=3.58e-07 $l=3.1e-07 $layer=POLY_cond $X=7.67 $Y=2.03
+ $X2=7.98 $Y2=2.03
r212 44 45 0.673184 $w=3.58e-07 $l=5e-09 $layer=POLY_cond $X=7.665 $Y=2.03
+ $X2=7.67 $Y2=2.03
r213 42 43 145.28 $w=1.7e-07 $l=1.7e-07 $layer=licon1_POLY $count=1 $X=3.95
+ $Y=1.995 $X2=3.95 $Y2=1.995
r214 40 42 46.8423 $w=3.55e-07 $l=3.45e-07 $layer=POLY_cond $X=3.605 $Y=2.037
+ $X2=3.95 $Y2=2.037
r215 38 53 9.3 $w=1.7e-07 $l=1.7e-07 $layer=mcon $count=1 $X=10.8 $Y=2.035
+ $X2=10.8 $Y2=2.035
r216 37 47 145.28 $w=1.7e-07 $l=1.7e-07 $layer=licon1_POLY $count=1 $X=7.98
+ $Y=1.985 $X2=7.98 $Y2=1.985
r217 36 37 9.3 $w=1.7e-07 $l=1.7e-07 $layer=mcon $count=1 $X=7.92 $Y=2.035
+ $X2=7.92 $Y2=2.035
r218 32 43 9.3 $w=1.7e-07 $l=1.7e-07 $layer=mcon $count=1 $X=4.08 $Y=2.035
+ $X2=4.08 $Y2=2.035
r219 30 36 0.115467 $w=2.3e-07 $l=1.45e-07 $layer=MET1_cond $X=8.065 $Y=2.035
+ $X2=7.92 $Y2=2.035
r220 29 38 0.115467 $w=2.3e-07 $l=1.45e-07 $layer=MET1_cond $X=10.655 $Y=2.035
+ $X2=10.8 $Y2=2.035
r221 29 30 3.20544 $w=1.4e-07 $l=2.59e-06 $layer=MET1_cond $X=10.655 $Y=2.035
+ $X2=8.065 $Y2=2.035
r222 28 32 0.115467 $w=2.3e-07 $l=1.45e-07 $layer=MET1_cond $X=4.225 $Y=2.035
+ $X2=4.08 $Y2=2.035
r223 27 36 0.115467 $w=2.3e-07 $l=1.45e-07 $layer=MET1_cond $X=7.775 $Y=2.035
+ $X2=7.92 $Y2=2.035
r224 27 28 4.39356 $w=1.4e-07 $l=3.55e-06 $layer=MET1_cond $X=7.775 $Y=2.035
+ $X2=4.225 $Y2=2.035
r225 24 26 91.58 $w=1.5e-07 $l=2.85e-07 $layer=POLY_cond $X=10.94 $Y=2.465
+ $X2=10.94 $Y2=2.75
r226 23 24 36.0588 $w=1.8e-07 $l=9e-08 $layer=POLY_cond $X=10.94 $Y=2.375
+ $X2=10.94 $Y2=2.465
r227 22 54 16.9318 $w=1.8e-07 $l=1.65e-07 $layer=POLY_cond $X=10.94 $Y=2.15
+ $X2=10.94 $Y2=1.985
r228 22 23 87.4597 $w=1.8e-07 $l=2.25e-07 $layer=POLY_cond $X=10.94 $Y=2.15
+ $X2=10.94 $Y2=2.375
r229 18 49 21.2229 $w=1.5e-07 $l=1.65e-07 $layer=POLY_cond $X=10.63 $Y=1.82
+ $X2=10.63 $Y2=1.985
r230 18 20 635.83 $w=1.5e-07 $l=1.24e-06 $layer=POLY_cond $X=10.63 $Y=1.82
+ $X2=10.63 $Y2=0.58
r231 17 45 23.1716 $w=1.5e-07 $l=2.1e-07 $layer=POLY_cond $X=7.67 $Y=1.82
+ $X2=7.67 $Y2=2.03
r232 16 17 248.691 $w=1.5e-07 $l=4.85e-07 $layer=POLY_cond $X=7.67 $Y=1.335
+ $X2=7.67 $Y2=1.82
r233 13 44 23.1716 $w=1.5e-07 $l=2.1e-07 $layer=POLY_cond $X=7.665 $Y=2.24
+ $X2=7.665 $Y2=2.03
r234 13 15 91.58 $w=1.5e-07 $l=2.85e-07 $layer=POLY_cond $X=7.665 $Y=2.24
+ $X2=7.665 $Y2=2.525
r235 11 16 26.9307 $w=1.5e-07 $l=1.06066e-07 $layer=POLY_cond $X=7.595 $Y=1.26
+ $X2=7.67 $Y2=1.335
r236 11 12 112.809 $w=1.5e-07 $l=2.2e-07 $layer=POLY_cond $X=7.595 $Y=1.26
+ $X2=7.375 $Y2=1.26
r237 8 12 26.9307 $w=1.5e-07 $l=1.06066e-07 $layer=POLY_cond $X=7.3 $Y=1.185
+ $X2=7.375 $Y2=1.26
r238 8 10 91.58 $w=1.5e-07 $l=2.85e-07 $layer=POLY_cond $X=7.3 $Y=1.185 $X2=7.3
+ $Y2=0.9
r239 5 40 22.9692 $w=1.5e-07 $l=2.08e-07 $layer=POLY_cond $X=3.605 $Y=2.245
+ $X2=3.605 $Y2=2.037
r240 5 7 126.927 $w=1.5e-07 $l=3.95e-07 $layer=POLY_cond $X=3.605 $Y=2.245
+ $X2=3.605 $Y2=2.64
r241 1 40 22.9692 $w=1.5e-07 $l=2.07e-07 $layer=POLY_cond $X=3.605 $Y=1.83
+ $X2=3.605 $Y2=2.037
r242 1 3 623.011 $w=1.5e-07 $l=1.215e-06 $layer=POLY_cond $X=3.605 $Y=1.83
+ $X2=3.605 $Y2=0.615
.ends

.subckt PM_SKY130_FD_SC_HS__SDFRTP_4%CLK 1 3 6 9 12 15 22
c55 6 0 1.80693e-19 $X=4.665 $Y=0.74
r56 15 22 3.70473 $w=4.08e-07 $l=1.15e-07 $layer=LI1_cond $X=4.08 $Y=1.385
+ $X2=4.195 $Y2=1.385
r57 12 22 9.60369 $w=3.28e-07 $l=2.75e-07 $layer=LI1_cond $X=4.47 $Y=1.425
+ $X2=4.195 $Y2=1.425
r58 12 13 72.64 $w=1.7e-07 $l=3.4e-07 $layer=licon1_POLY $count=2 $X=4.47
+ $Y=1.425 $X2=4.47 $Y2=1.425
r59 9 13 14.8632 $w=3.3e-07 $l=8.5e-08 $layer=POLY_cond $X=4.555 $Y=1.425
+ $X2=4.47 $Y2=1.425
r60 4 9 45.1689 $w=1.83e-07 $l=1.73767e-07 $layer=POLY_cond $X=4.665 $Y=1.26
+ $X2=4.647 $Y2=1.425
r61 4 6 266.638 $w=1.5e-07 $l=5.2e-07 $layer=POLY_cond $X=4.665 $Y=1.26
+ $X2=4.665 $Y2=0.74
r62 1 9 91.2618 $w=1.83e-07 $l=3.40999e-07 $layer=POLY_cond $X=4.645 $Y=1.765
+ $X2=4.647 $Y2=1.425
r63 1 3 204.047 $w=1.5e-07 $l=6.35e-07 $layer=POLY_cond $X=4.645 $Y=1.765
+ $X2=4.645 $Y2=2.4
.ends

.subckt PM_SKY130_FD_SC_HS__SDFRTP_4%A_1034_74# 1 2 8 9 11 12 16 18 20 21 22 23
+ 25 29 31 32 33 36 39 42 43 44 46 48 49 51 54 55 58 66 67 69
c220 69 0 1.2914e-19 $X=6.065 $Y=1.66
c221 67 0 1.40436e-19 $X=9.33 $Y=1.07
c222 66 0 1.39722e-19 $X=9.25 $Y=1.07
c223 54 0 1.12863e-19 $X=5.382 $Y=1.075
c224 33 0 6.78307e-20 $X=5.62 $Y=0.415
r225 66 75 15.7375 $w=3.3e-07 $l=9e-08 $layer=POLY_cond $X=9.25 $Y=1.07 $X2=9.25
+ $Y2=1.16
r226 65 67 2.7938 $w=3.28e-07 $l=8e-08 $layer=LI1_cond $X=9.25 $Y=1.07 $X2=9.33
+ $Y2=1.07
r227 65 66 145.28 $w=1.7e-07 $l=1.7e-07 $layer=licon1_POLY $count=1 $X=9.25
+ $Y=1.07 $X2=9.25 $Y2=1.07
r228 62 65 11.8737 $w=3.28e-07 $l=3.4e-07 $layer=LI1_cond $X=8.91 $Y=1.07
+ $X2=9.25 $Y2=1.07
r229 58 60 16.3102 $w=1.68e-07 $l=2.5e-07 $layer=LI1_cond $X=7.14 $Y=0.415
+ $X2=7.14 $Y2=0.665
r230 55 57 11.6369 $w=3.25e-07 $l=3.1e-07 $layer=LI1_cond $X=5.387 $Y=1.75
+ $X2=5.387 $Y2=2.06
r231 51 52 145.28 $w=1.7e-07 $l=1.7e-07 $layer=licon1_POLY $count=1 $X=9.79
+ $Y=2.215 $X2=9.79 $Y2=2.215
r232 49 51 13.7196 $w=3.13e-07 $l=3.75e-07 $layer=LI1_cond $X=9.415 $Y=2.222
+ $X2=9.79 $Y2=2.222
r233 48 49 7.64049 $w=3.15e-07 $l=1.94921e-07 $layer=LI1_cond $X=9.33 $Y=2.065
+ $X2=9.415 $Y2=2.222
r234 47 67 4.62375 $w=1.7e-07 $l=1.65e-07 $layer=LI1_cond $X=9.33 $Y=1.235
+ $X2=9.33 $Y2=1.07
r235 47 48 54.1497 $w=1.68e-07 $l=8.3e-07 $layer=LI1_cond $X=9.33 $Y=1.235
+ $X2=9.33 $Y2=2.065
r236 46 62 4.62375 $w=1.7e-07 $l=1.65e-07 $layer=LI1_cond $X=8.91 $Y=0.905
+ $X2=8.91 $Y2=1.07
r237 45 46 31.3155 $w=1.68e-07 $l=4.8e-07 $layer=LI1_cond $X=8.91 $Y=0.425
+ $X2=8.91 $Y2=0.905
r238 43 45 6.81649 $w=1.7e-07 $l=1.20208e-07 $layer=LI1_cond $X=8.825 $Y=0.34
+ $X2=8.91 $Y2=0.425
r239 43 44 47.2995 $w=1.68e-07 $l=7.25e-07 $layer=LI1_cond $X=8.825 $Y=0.34
+ $X2=8.1 $Y2=0.34
r240 41 44 6.81649 $w=1.7e-07 $l=1.20208e-07 $layer=LI1_cond $X=8.015 $Y=0.425
+ $X2=8.1 $Y2=0.34
r241 41 42 10.1123 $w=1.68e-07 $l=1.55e-07 $layer=LI1_cond $X=8.015 $Y=0.425
+ $X2=8.015 $Y2=0.58
r242 40 60 0.716491 $w=1.7e-07 $l=8.5e-08 $layer=LI1_cond $X=7.225 $Y=0.665
+ $X2=7.14 $Y2=0.665
r243 39 42 6.81649 $w=1.7e-07 $l=1.20208e-07 $layer=LI1_cond $X=7.93 $Y=0.665
+ $X2=8.015 $Y2=0.58
r244 39 40 45.9947 $w=1.68e-07 $l=7.05e-07 $layer=LI1_cond $X=7.93 $Y=0.665
+ $X2=7.225 $Y2=0.665
r245 37 72 40.6903 $w=3.3e-07 $l=1.65e-07 $layer=POLY_cond $X=6.065 $Y=1.75
+ $X2=6.065 $Y2=1.915
r246 37 69 15.7375 $w=3.3e-07 $l=9e-08 $layer=POLY_cond $X=6.065 $Y=1.75
+ $X2=6.065 $Y2=1.66
r247 36 37 145.28 $w=1.7e-07 $l=1.7e-07 $layer=licon1_POLY $count=1 $X=6.065
+ $Y=1.75 $X2=6.065 $Y2=1.75
r248 34 55 0.623162 $w=3.3e-07 $l=2.33e-07 $layer=LI1_cond $X=5.62 $Y=1.75
+ $X2=5.387 $Y2=1.75
r249 34 36 15.5405 $w=3.28e-07 $l=4.45e-07 $layer=LI1_cond $X=5.62 $Y=1.75
+ $X2=6.065 $Y2=1.75
r250 32 58 0.716491 $w=1.7e-07 $l=8.5e-08 $layer=LI1_cond $X=7.055 $Y=0.415
+ $X2=7.14 $Y2=0.415
r251 32 33 93.6203 $w=1.68e-07 $l=1.435e-06 $layer=LI1_cond $X=7.055 $Y=0.415
+ $X2=5.62 $Y2=0.415
r252 31 55 8.95611 $w=3.25e-07 $l=2.27255e-07 $layer=LI1_cond $X=5.535 $Y=1.585
+ $X2=5.387 $Y2=1.75
r253 31 54 33.2727 $w=1.68e-07 $l=5.1e-07 $layer=LI1_cond $X=5.535 $Y=1.585
+ $X2=5.535 $Y2=1.075
r254 27 54 11.1798 $w=4.73e-07 $l=2.37e-07 $layer=LI1_cond $X=5.382 $Y=0.838
+ $X2=5.382 $Y2=1.075
r255 27 29 8.13333 $w=4.73e-07 $l=3.23e-07 $layer=LI1_cond $X=5.382 $Y=0.838
+ $X2=5.382 $Y2=0.515
r256 26 33 9.01902 $w=1.7e-07 $l=2.77262e-07 $layer=LI1_cond $X=5.382 $Y=0.5
+ $X2=5.62 $Y2=0.415
r257 26 29 0.377709 $w=4.73e-07 $l=1.5e-08 $layer=LI1_cond $X=5.382 $Y=0.5
+ $X2=5.382 $Y2=0.515
r258 23 52 52.2586 $w=2.99e-07 $l=2.7157e-07 $layer=POLY_cond $X=9.835 $Y=2.465
+ $X2=9.79 $Y2=2.215
r259 23 25 91.58 $w=1.5e-07 $l=2.85e-07 $layer=POLY_cond $X=9.835 $Y=2.465
+ $X2=9.835 $Y2=2.75
r260 21 75 21.2229 $w=1.5e-07 $l=1.65e-07 $layer=POLY_cond $X=9.085 $Y=1.16
+ $X2=9.25 $Y2=1.16
r261 21 22 184.596 $w=1.5e-07 $l=3.6e-07 $layer=POLY_cond $X=9.085 $Y=1.16
+ $X2=8.725 $Y2=1.16
r262 18 22 26.9307 $w=1.5e-07 $l=1.06066e-07 $layer=POLY_cond $X=8.65 $Y=1.085
+ $X2=8.725 $Y2=1.16
r263 18 20 126.927 $w=1.5e-07 $l=3.95e-07 $layer=POLY_cond $X=8.65 $Y=1.085
+ $X2=8.65 $Y2=0.69
r264 14 16 351.245 $w=1.5e-07 $l=6.85e-07 $layer=POLY_cond $X=6.52 $Y=1.585
+ $X2=6.52 $Y2=0.9
r265 13 69 21.2229 $w=1.5e-07 $l=1.65e-07 $layer=POLY_cond $X=6.23 $Y=1.66
+ $X2=6.065 $Y2=1.66
r266 12 14 26.9307 $w=1.5e-07 $l=1.06066e-07 $layer=POLY_cond $X=6.445 $Y=1.66
+ $X2=6.52 $Y2=1.585
r267 12 13 110.245 $w=1.5e-07 $l=2.15e-07 $layer=POLY_cond $X=6.445 $Y=1.66
+ $X2=6.23 $Y2=1.66
r268 9 11 91.58 $w=1.5e-07 $l=2.85e-07 $layer=POLY_cond $X=6.135 $Y=2.24
+ $X2=6.135 $Y2=2.525
r269 8 9 36.0588 $w=1.8e-07 $l=9e-08 $layer=POLY_cond $X=6.135 $Y=2.15 $X2=6.135
+ $Y2=2.24
r270 8 72 91.3468 $w=1.8e-07 $l=2.35e-07 $layer=POLY_cond $X=6.135 $Y=2.15
+ $X2=6.135 $Y2=1.915
r271 2 57 600 $w=1.7e-07 $l=2.85307e-07 $layer=licon1_PDIFF $count=1 $X=5.17
+ $Y=1.84 $X2=5.32 $Y2=2.06
r272 1 29 91 $w=1.7e-07 $l=2.03286e-07 $layer=licon1_NDIFF $count=2 $X=5.17
+ $Y=0.37 $X2=5.31 $Y2=0.515
.ends

.subckt PM_SKY130_FD_SC_HS__SDFRTP_4%A_1367_112# 1 2 9 12 13 15 18 19 22 24 25
+ 27 33 34
c109 34 0 2.99465e-19 $X=8.57 $Y=0.842
c110 18 0 3.61087e-19 $X=7.19 $Y=1.78
c111 9 0 1.59809e-19 $X=6.91 $Y=0.9
r112 40 42 20.109 $w=3.3e-07 $l=1.15e-07 $layer=POLY_cond $X=6.91 $Y=1.78
+ $X2=7.025 $Y2=1.78
r113 32 34 3.26203 $w=4.93e-07 $l=1.35e-07 $layer=LI1_cond $X=8.435 $Y=0.842
+ $X2=8.57 $Y2=0.842
r114 32 33 9.48656 $w=4.93e-07 $l=1.65e-07 $layer=LI1_cond $X=8.435 $Y=0.842
+ $X2=8.27 $Y2=0.842
r115 27 29 24.795 $w=3.28e-07 $l=7.1e-07 $layer=LI1_cond $X=8.9 $Y=1.88 $X2=8.9
+ $Y2=2.59
r116 25 36 21.5294 $w=1.68e-07 $l=3.3e-07 $layer=LI1_cond $X=8.9 $Y=1.49
+ $X2=8.57 $Y2=1.49
r117 25 27 10.6514 $w=3.28e-07 $l=3.05e-07 $layer=LI1_cond $X=8.9 $Y=1.575
+ $X2=8.9 $Y2=1.88
r118 24 36 0.716491 $w=1.7e-07 $l=8.5e-08 $layer=LI1_cond $X=8.57 $Y=1.405
+ $X2=8.57 $Y2=1.49
r119 23 34 7.09362 $w=1.7e-07 $l=2.48e-07 $layer=LI1_cond $X=8.57 $Y=1.09
+ $X2=8.57 $Y2=0.842
r120 23 24 20.5508 $w=1.68e-07 $l=3.15e-07 $layer=LI1_cond $X=8.57 $Y=1.09
+ $X2=8.57 $Y2=1.405
r121 22 33 61.6524 $w=1.68e-07 $l=9.45e-07 $layer=LI1_cond $X=7.325 $Y=1.005
+ $X2=8.27 $Y2=1.005
r122 19 42 28.8521 $w=3.3e-07 $l=1.65e-07 $layer=POLY_cond $X=7.19 $Y=1.78
+ $X2=7.025 $Y2=1.78
r123 18 19 145.28 $w=1.7e-07 $l=1.7e-07 $layer=licon1_POLY $count=1 $X=7.19
+ $Y=1.78 $X2=7.19 $Y2=1.78
r124 16 22 7.28469 $w=1.7e-07 $l=1.72337e-07 $layer=LI1_cond $X=7.19 $Y=1.09
+ $X2=7.325 $Y2=1.005
r125 16 18 29.4513 $w=2.68e-07 $l=6.9e-07 $layer=LI1_cond $X=7.19 $Y=1.09
+ $X2=7.19 $Y2=1.78
r126 13 15 91.58 $w=1.5e-07 $l=2.85e-07 $layer=POLY_cond $X=7.025 $Y=2.24
+ $X2=7.025 $Y2=2.525
r127 12 13 36.0588 $w=1.8e-07 $l=9e-08 $layer=POLY_cond $X=7.025 $Y=2.15
+ $X2=7.025 $Y2=2.24
r128 11 42 16.9318 $w=1.8e-07 $l=1.65e-07 $layer=POLY_cond $X=7.025 $Y=1.945
+ $X2=7.025 $Y2=1.78
r129 11 12 79.6855 $w=1.8e-07 $l=2.05e-07 $layer=POLY_cond $X=7.025 $Y=1.945
+ $X2=7.025 $Y2=2.15
r130 7 40 21.2229 $w=1.5e-07 $l=1.65e-07 $layer=POLY_cond $X=6.91 $Y=1.615
+ $X2=6.91 $Y2=1.78
r131 7 9 366.628 $w=1.5e-07 $l=7.15e-07 $layer=POLY_cond $X=6.91 $Y=1.615
+ $X2=6.91 $Y2=0.9
r132 2 29 400 $w=1.7e-07 $l=9.26971e-07 $layer=licon1_PDIFF $count=1 $X=8.75
+ $Y=1.735 $X2=8.9 $Y2=2.59
r133 2 27 400 $w=1.7e-07 $l=2.10357e-07 $layer=licon1_PDIFF $count=1 $X=8.75
+ $Y=1.735 $X2=8.9 $Y2=1.88
r134 1 32 182 $w=1.7e-07 $l=5.24404e-07 $layer=licon1_NDIFF $count=1 $X=8.25
+ $Y=0.37 $X2=8.435 $Y2=0.81
.ends

.subckt PM_SKY130_FD_SC_HS__SDFRTP_4%A_1233_138# 1 2 3 12 14 16 18 19 23 26 27
+ 30 31 33 34 37 41
c135 34 0 7.6904e-20 $X=8.15 $Y=1.41
c136 27 0 9.53373e-20 $X=7.495 $Y=2.405
c137 23 0 5.85006e-21 $X=6.715 $Y=0.99
c138 12 0 3.00719e-20 $X=8.175 $Y=0.74
r139 37 39 4.1907 $w=3.28e-07 $l=1.2e-07 $layer=LI1_cond $X=6.305 $Y=0.87
+ $X2=6.305 $Y2=0.99
r140 34 47 19.2347 $w=3.3e-07 $l=1.1e-07 $layer=POLY_cond $X=8.15 $Y=1.41
+ $X2=8.15 $Y2=1.52
r141 34 46 46.2115 $w=3.3e-07 $l=1.65e-07 $layer=POLY_cond $X=8.15 $Y=1.41
+ $X2=8.15 $Y2=1.245
r142 33 34 145.28 $w=1.7e-07 $l=1.7e-07 $layer=licon1_POLY $count=1 $X=8.15
+ $Y=1.41 $X2=8.15 $Y2=1.41
r143 31 33 17.744 $w=3.13e-07 $l=4.85e-07 $layer=LI1_cond $X=7.665 $Y=1.417
+ $X2=8.15 $Y2=1.417
r144 30 44 11.6012 $w=3.26e-07 $l=4.04191e-07 $layer=LI1_cond $X=7.58 $Y=2.32
+ $X2=7.89 $Y2=2.537
r145 29 31 7.64049 $w=3.15e-07 $l=1.95944e-07 $layer=LI1_cond $X=7.58 $Y=1.575
+ $X2=7.665 $Y2=1.417
r146 29 30 48.6043 $w=1.68e-07 $l=7.45e-07 $layer=LI1_cond $X=7.58 $Y=1.575
+ $X2=7.58 $Y2=2.32
r147 28 41 3.70735 $w=2.5e-07 $l=1.69245e-07 $layer=LI1_cond $X=6.885 $Y=2.405
+ $X2=6.8 $Y2=2.537
r148 27 30 5.9625 $w=3.26e-07 $l=1.20208e-07 $layer=LI1_cond $X=7.495 $Y=2.405
+ $X2=7.58 $Y2=2.32
r149 27 28 39.7968 $w=1.68e-07 $l=6.1e-07 $layer=LI1_cond $X=7.495 $Y=2.405
+ $X2=6.885 $Y2=2.405
r150 26 41 2.76166 $w=1.7e-07 $l=2.17e-07 $layer=LI1_cond $X=6.8 $Y=2.32 $X2=6.8
+ $Y2=2.537
r151 25 26 81.2246 $w=1.68e-07 $l=1.245e-06 $layer=LI1_cond $X=6.8 $Y=1.075
+ $X2=6.8 $Y2=2.32
r152 24 39 4.62375 $w=1.7e-07 $l=1.65e-07 $layer=LI1_cond $X=6.47 $Y=0.99
+ $X2=6.305 $Y2=0.99
r153 23 25 6.81649 $w=1.7e-07 $l=1.20208e-07 $layer=LI1_cond $X=6.715 $Y=0.99
+ $X2=6.8 $Y2=1.075
r154 23 24 15.984 $w=1.68e-07 $l=2.45e-07 $layer=LI1_cond $X=6.715 $Y=0.99
+ $X2=6.47 $Y2=0.99
r155 19 41 3.70735 $w=2.5e-07 $l=1.08305e-07 $layer=LI1_cond $X=6.715 $Y=2.59
+ $X2=6.8 $Y2=2.537
r156 19 21 10.6514 $w=3.28e-07 $l=3.05e-07 $layer=LI1_cond $X=6.715 $Y=2.59
+ $X2=6.41 $Y2=2.59
r157 16 18 184.767 $w=1.5e-07 $l=5.75e-07 $layer=POLY_cond $X=8.675 $Y=1.66
+ $X2=8.675 $Y2=2.235
r158 15 47 21.2229 $w=1.5e-07 $l=1.65e-07 $layer=POLY_cond $X=8.315 $Y=1.52
+ $X2=8.15 $Y2=1.52
r159 14 16 26.9307 $w=1.5e-07 $l=1.79444e-07 $layer=POLY_cond $X=8.585 $Y=1.52
+ $X2=8.675 $Y2=1.66
r160 14 15 138.447 $w=1.5e-07 $l=2.7e-07 $layer=POLY_cond $X=8.585 $Y=1.52
+ $X2=8.315 $Y2=1.52
r161 12 46 258.947 $w=1.5e-07 $l=5.05e-07 $layer=POLY_cond $X=8.175 $Y=0.74
+ $X2=8.175 $Y2=1.245
r162 3 44 600 $w=1.7e-07 $l=2.85307e-07 $layer=licon1_PDIFF $count=1 $X=7.74
+ $Y=2.315 $X2=7.89 $Y2=2.535
r163 2 21 600 $w=1.7e-07 $l=3.61421e-07 $layer=licon1_PDIFF $count=1 $X=6.21
+ $Y=2.315 $X2=6.41 $Y2=2.59
r164 1 37 182 $w=1.7e-07 $l=2.4e-07 $layer=licon1_NDIFF $count=1 $X=6.165
+ $Y=0.69 $X2=6.305 $Y2=0.87
.ends

.subckt PM_SKY130_FD_SC_HS__SDFRTP_4%A_855_368# 1 2 7 9 10 12 13 16 17 19 20 21
+ 23 24 25 26 28 29 31 32 36 37 38 41 43 44 47 49 50 51 54 56 57 65
c197 37 0 1.10364e-19 $X=9.625 $Y=1.585
c198 21 0 5.85006e-21 $X=6.09 $Y=1.195
c199 10 0 5.8724e-20 $X=5.095 $Y=1.765
r200 66 68 24.1 $w=2.8e-07 $l=1.4e-07 $layer=POLY_cond $X=5.115 $Y=1.41
+ $X2=5.115 $Y2=1.27
r201 65 66 145.28 $w=1.7e-07 $l=1.7e-07 $layer=licon1_POLY $count=1 $X=5.115
+ $Y=1.41 $X2=5.115 $Y2=1.41
r202 62 65 7.85757 $w=3.28e-07 $l=2.25e-07 $layer=LI1_cond $X=4.89 $Y=1.41
+ $X2=5.115 $Y2=1.41
r203 57 60 5.30124 $w=2.48e-07 $l=1.15e-07 $layer=LI1_cond $X=4.46 $Y=1.905
+ $X2=4.46 $Y2=2.02
r204 55 62 4.62375 $w=1.7e-07 $l=1.65e-07 $layer=LI1_cond $X=4.89 $Y=1.575
+ $X2=4.89 $Y2=1.41
r205 55 56 15.984 $w=1.68e-07 $l=2.45e-07 $layer=LI1_cond $X=4.89 $Y=1.575
+ $X2=4.89 $Y2=1.82
r206 54 62 4.62375 $w=1.7e-07 $l=1.65e-07 $layer=LI1_cond $X=4.89 $Y=1.245
+ $X2=4.89 $Y2=1.41
r207 53 54 10.1123 $w=1.68e-07 $l=1.55e-07 $layer=LI1_cond $X=4.89 $Y=1.09
+ $X2=4.89 $Y2=1.245
r208 52 57 2.99516 $w=1.7e-07 $l=1.25e-07 $layer=LI1_cond $X=4.585 $Y=1.905
+ $X2=4.46 $Y2=1.905
r209 51 56 6.81649 $w=1.7e-07 $l=1.20208e-07 $layer=LI1_cond $X=4.805 $Y=1.905
+ $X2=4.89 $Y2=1.82
r210 51 52 14.3529 $w=1.68e-07 $l=2.2e-07 $layer=LI1_cond $X=4.805 $Y=1.905
+ $X2=4.585 $Y2=1.905
r211 49 53 6.81649 $w=1.7e-07 $l=1.20208e-07 $layer=LI1_cond $X=4.805 $Y=1.005
+ $X2=4.89 $Y2=1.09
r212 49 50 17.615 $w=1.68e-07 $l=2.7e-07 $layer=LI1_cond $X=4.805 $Y=1.005
+ $X2=4.535 $Y2=1.005
r213 45 50 6.81649 $w=1.7e-07 $l=1.20208e-07 $layer=LI1_cond $X=4.45 $Y=0.92
+ $X2=4.535 $Y2=1.005
r214 45 47 26.4225 $w=1.68e-07 $l=4.05e-07 $layer=LI1_cond $X=4.45 $Y=0.92
+ $X2=4.45 $Y2=0.515
r215 39 41 476.872 $w=1.5e-07 $l=9.3e-07 $layer=POLY_cond $X=9.7 $Y=1.51 $X2=9.7
+ $Y2=0.58
r216 37 39 26.9307 $w=1.5e-07 $l=1.06066e-07 $layer=POLY_cond $X=9.625 $Y=1.585
+ $X2=9.7 $Y2=1.51
r217 37 38 217.926 $w=1.5e-07 $l=4.25e-07 $layer=POLY_cond $X=9.625 $Y=1.585
+ $X2=9.2 $Y2=1.585
r218 34 36 294.84 $w=1.5e-07 $l=5.75e-07 $layer=POLY_cond $X=9.125 $Y=2.81
+ $X2=9.125 $Y2=2.235
r219 33 38 26.9307 $w=1.5e-07 $l=1.06066e-07 $layer=POLY_cond $X=9.125 $Y=1.66
+ $X2=9.2 $Y2=1.585
r220 33 36 294.84 $w=1.5e-07 $l=5.75e-07 $layer=POLY_cond $X=9.125 $Y=1.66
+ $X2=9.125 $Y2=2.235
r221 31 34 36.0588 $w=1.8e-07 $l=9e-08 $layer=POLY_cond $X=9.125 $Y=2.9
+ $X2=9.125 $Y2=2.81
r222 31 32 68.0242 $w=1.8e-07 $l=1.75e-07 $layer=POLY_cond $X=9.125 $Y=2.9
+ $X2=9.125 $Y2=3.075
r223 30 44 23.6879 $w=1.5e-07 $l=9e-08 $layer=POLY_cond $X=6.725 $Y=3.15
+ $X2=6.635 $Y2=3.15
r224 29 32 27.2212 $w=1.5e-07 $l=1.21861e-07 $layer=POLY_cond $X=9.035 $Y=3.15
+ $X2=9.125 $Y2=3.075
r225 29 30 1184.49 $w=1.5e-07 $l=2.31e-06 $layer=POLY_cond $X=9.035 $Y=3.15
+ $X2=6.725 $Y2=3.15
r226 26 28 91.58 $w=1.5e-07 $l=2.85e-07 $layer=POLY_cond $X=6.635 $Y=2.81
+ $X2=6.635 $Y2=2.525
r227 25 44 2.7459 $w=1.8e-07 $l=7.5e-08 $layer=POLY_cond $X=6.635 $Y=3.075
+ $X2=6.635 $Y2=3.15
r228 24 26 36.0588 $w=1.8e-07 $l=9e-08 $layer=POLY_cond $X=6.635 $Y=2.9
+ $X2=6.635 $Y2=2.81
r229 24 25 68.0242 $w=1.8e-07 $l=1.75e-07 $layer=POLY_cond $X=6.635 $Y=2.9
+ $X2=6.635 $Y2=3.075
r230 21 23 94.7933 $w=1.5e-07 $l=2.95e-07 $layer=POLY_cond $X=6.09 $Y=1.195
+ $X2=6.09 $Y2=0.9
r231 19 44 23.6879 $w=1.5e-07 $l=9e-08 $layer=POLY_cond $X=6.545 $Y=3.15
+ $X2=6.635 $Y2=3.15
r232 19 20 438.415 $w=1.5e-07 $l=8.55e-07 $layer=POLY_cond $X=6.545 $Y=3.15
+ $X2=5.69 $Y2=3.15
r233 18 43 20.4101 $w=1.5e-07 $l=7.5e-08 $layer=POLY_cond $X=5.69 $Y=1.27
+ $X2=5.615 $Y2=1.27
r234 17 21 26.9307 $w=1.5e-07 $l=1.06066e-07 $layer=POLY_cond $X=6.015 $Y=1.27
+ $X2=6.09 $Y2=1.195
r235 17 18 166.649 $w=1.5e-07 $l=3.25e-07 $layer=POLY_cond $X=6.015 $Y=1.27
+ $X2=5.69 $Y2=1.27
r236 16 20 26.9307 $w=1.5e-07 $l=1.06066e-07 $layer=POLY_cond $X=5.615 $Y=3.075
+ $X2=5.69 $Y2=3.15
r237 15 43 5.30422 $w=1.5e-07 $l=7.5e-08 $layer=POLY_cond $X=5.615 $Y=1.345
+ $X2=5.615 $Y2=1.27
r238 15 16 887.085 $w=1.5e-07 $l=1.73e-06 $layer=POLY_cond $X=5.615 $Y=1.345
+ $X2=5.615 $Y2=3.075
r239 14 68 17.3521 $w=1.5e-07 $l=1.65e-07 $layer=POLY_cond $X=5.28 $Y=1.27
+ $X2=5.115 $Y2=1.27
r240 13 43 20.4101 $w=1.5e-07 $l=7.5e-08 $layer=POLY_cond $X=5.54 $Y=1.27
+ $X2=5.615 $Y2=1.27
r241 13 14 133.319 $w=1.5e-07 $l=2.6e-07 $layer=POLY_cond $X=5.54 $Y=1.27
+ $X2=5.28 $Y2=1.27
r242 10 66 71.437 $w=2.8e-07 $l=3.64863e-07 $layer=POLY_cond $X=5.095 $Y=1.765
+ $X2=5.115 $Y2=1.41
r243 10 12 204.047 $w=1.5e-07 $l=6.35e-07 $layer=POLY_cond $X=5.095 $Y=1.765
+ $X2=5.095 $Y2=2.4
r244 7 68 23.237 $w=2.8e-07 $l=8.44097e-08 $layer=POLY_cond $X=5.095 $Y=1.195
+ $X2=5.115 $Y2=1.27
r245 7 9 146.207 $w=1.5e-07 $l=4.55e-07 $layer=POLY_cond $X=5.095 $Y=1.195
+ $X2=5.095 $Y2=0.74
r246 2 60 600 $w=1.7e-07 $l=2.41868e-07 $layer=licon1_PDIFF $count=1 $X=4.275
+ $Y=1.84 $X2=4.42 $Y2=2.02
r247 1 47 91 $w=1.7e-07 $l=2.05061e-07 $layer=licon1_NDIFF $count=2 $X=4.305
+ $Y=0.37 $X2=4.45 $Y2=0.515
.ends

.subckt PM_SKY130_FD_SC_HS__SDFRTP_4%A_2003_48# 1 2 9 12 13 15 16 18 25 27 28 33
+ 34 37
c89 25 0 1.05829e-19 $X=11.5 $Y=1.385
r90 36 37 16.6364 $w=1.68e-07 $l=2.55e-07 $layer=LI1_cond $X=11.245 $Y=1.47
+ $X2=11.5 $Y2=1.47
r91 33 34 10.7321 $w=3.28e-07 $l=2.3e-07 $layer=LI1_cond $X=11.165 $Y=2.75
+ $X2=11.165 $Y2=2.52
r92 28 41 40.6903 $w=3.3e-07 $l=1.65e-07 $layer=POLY_cond $X=10.18 $Y=1.39
+ $X2=10.18 $Y2=1.555
r93 28 40 46.2115 $w=3.3e-07 $l=1.65e-07 $layer=POLY_cond $X=10.18 $Y=1.39
+ $X2=10.18 $Y2=1.225
r94 27 30 2.7938 $w=3.28e-07 $l=8e-08 $layer=LI1_cond $X=10.18 $Y=1.39 $X2=10.18
+ $Y2=1.47
r95 27 28 145.28 $w=1.7e-07 $l=1.7e-07 $layer=licon1_POLY $count=1 $X=10.18
+ $Y=1.39 $X2=10.18 $Y2=1.39
r96 25 37 0.716491 $w=1.7e-07 $l=8.5e-08 $layer=LI1_cond $X=11.5 $Y=1.385
+ $X2=11.5 $Y2=1.47
r97 24 25 43.7112 $w=1.68e-07 $l=6.7e-07 $layer=LI1_cond $X=11.5 $Y=0.715
+ $X2=11.5 $Y2=1.385
r98 22 36 0.716491 $w=1.7e-07 $l=8.5e-08 $layer=LI1_cond $X=11.245 $Y=1.555
+ $X2=11.245 $Y2=1.47
r99 22 34 62.9572 $w=1.68e-07 $l=9.65e-07 $layer=LI1_cond $X=11.245 $Y=1.555
+ $X2=11.245 $Y2=2.52
r100 18 24 7.76618 $w=3.3e-07 $l=2.03101e-07 $layer=LI1_cond $X=11.415 $Y=0.55
+ $X2=11.5 $Y2=0.715
r101 18 20 6.11144 $w=3.28e-07 $l=1.75e-07 $layer=LI1_cond $X=11.415 $Y=0.55
+ $X2=11.24 $Y2=0.55
r102 17 30 4.62375 $w=1.7e-07 $l=1.65e-07 $layer=LI1_cond $X=10.345 $Y=1.47
+ $X2=10.18 $Y2=1.47
r103 16 36 5.54545 $w=1.68e-07 $l=8.5e-08 $layer=LI1_cond $X=11.16 $Y=1.47
+ $X2=11.245 $Y2=1.47
r104 16 17 53.1711 $w=1.68e-07 $l=8.15e-07 $layer=LI1_cond $X=11.16 $Y=1.47
+ $X2=10.345 $Y2=1.47
r105 13 15 91.58 $w=1.5e-07 $l=2.85e-07 $layer=POLY_cond $X=10.255 $Y=2.465
+ $X2=10.255 $Y2=2.75
r106 12 13 36.0588 $w=1.8e-07 $l=9e-08 $layer=POLY_cond $X=10.255 $Y=2.375
+ $X2=10.255 $Y2=2.465
r107 12 41 318.742 $w=1.8e-07 $l=8.2e-07 $layer=POLY_cond $X=10.255 $Y=2.375
+ $X2=10.255 $Y2=1.555
r108 9 40 330.734 $w=1.5e-07 $l=6.45e-07 $layer=POLY_cond $X=10.09 $Y=0.58
+ $X2=10.09 $Y2=1.225
r109 2 33 600 $w=1.7e-07 $l=2.74955e-07 $layer=licon1_PDIFF $count=1 $X=11.015
+ $Y=2.54 $X2=11.165 $Y2=2.75
r110 1 20 182 $w=1.7e-07 $l=2.52785e-07 $layer=licon1_NDIFF $count=1 $X=11.065
+ $Y=0.37 $X2=11.24 $Y2=0.55
.ends

.subckt PM_SKY130_FD_SC_HS__SDFRTP_4%A_1745_74# 1 2 7 9 12 13 14 16 17 19 21 22
+ 24 26 27 29 31 32 33 34 35 39 44 46 47 49 50 52 53 54 64
c164 29 0 1.81891e-19 $X=12.49 $Y=1.765
c165 26 0 1.05829e-19 $X=12.055 $Y=1.615
c166 22 0 1.86508e-19 $X=12.055 $Y=1.185
r167 63 64 35.0294 $w=4.35e-07 $l=7.5e-08 $layer=POLY_cond $X=11.46 $Y=1.117
+ $X2=11.535 $Y2=1.117
r168 58 63 48.5836 $w=4.35e-07 $l=3.8e-07 $layer=POLY_cond $X=11.08 $Y=1.117
+ $X2=11.46 $Y2=1.117
r169 57 58 145.28 $w=1.7e-07 $l=1.7e-07 $layer=licon1_POLY $count=1 $X=11.08
+ $Y=1.065 $X2=11.08 $Y2=1.065
r170 54 57 3.31764 $w=3.28e-07 $l=9.5e-08 $layer=LI1_cond $X=11.08 $Y=0.97
+ $X2=11.08 $Y2=1.065
r171 51 52 42.7326 $w=1.68e-07 $l=6.55e-07 $layer=LI1_cond $X=10.21 $Y=1.895
+ $X2=10.21 $Y2=2.55