* File: sky130_fd_sc_hs__o211ai_4.pex.spice
* Created: Tue Sep  1 20:14:06 2020
* Program "Calibre xRC"
* Version "v2018.4_34.26"
* Nominal Temperature: 27C
* Circuit Temperature: 27C
* 
.subckt PM_SKY130_FD_SC_HS__O211AI_4%A1 3 5 7 8 10 13 15 17 20 22 24 27 29 30 31
+ 32 49
c87 32 0 9.71509e-21 $X=1.68 $Y=1.665
c88 22 0 1.30363e-19 $X=1.87 $Y=1.765
r89 49 50 7.2038 $w=3.68e-07 $l=5.5e-08 $layer=POLY_cond $X=1.87 $Y=1.557
+ $X2=1.925 $Y2=1.557
r90 47 49 34.7092 $w=3.68e-07 $l=2.65e-07 $layer=POLY_cond $X=1.605 $Y=1.557
+ $X2=1.87 $Y2=1.557
r91 47 48 72.64 $w=1.7e-07 $l=3.4e-07 $layer=licon1_POLY $count=2 $X=1.605
+ $Y=1.515 $X2=1.605 $Y2=1.515
r92 45 47 23.5761 $w=3.68e-07 $l=1.8e-07 $layer=POLY_cond $X=1.425 $Y=1.557
+ $X2=1.605 $Y2=1.557
r93 44 45 0.654891 $w=3.68e-07 $l=5e-09 $layer=POLY_cond $X=1.42 $Y=1.557
+ $X2=1.425 $Y2=1.557
r94 43 44 55.6658 $w=3.68e-07 $l=4.25e-07 $layer=POLY_cond $X=0.995 $Y=1.557
+ $X2=1.42 $Y2=1.557
r95 42 43 3.27446 $w=3.68e-07 $l=2.5e-08 $layer=POLY_cond $X=0.97 $Y=1.557
+ $X2=0.995 $Y2=1.557
r96 40 42 50.4266 $w=3.68e-07 $l=3.85e-07 $layer=POLY_cond $X=0.585 $Y=1.557
+ $X2=0.97 $Y2=1.557
r97 40 41 72.64 $w=1.7e-07 $l=3.4e-07 $layer=licon1_POLY $count=2 $X=0.585
+ $Y=1.515 $X2=0.585 $Y2=1.515
r98 38 40 8.51359 $w=3.68e-07 $l=6.5e-08 $layer=POLY_cond $X=0.52 $Y=1.557
+ $X2=0.585 $Y2=1.557
r99 37 38 3.27446 $w=3.68e-07 $l=2.5e-08 $layer=POLY_cond $X=0.495 $Y=1.557
+ $X2=0.52 $Y2=1.557
r100 32 48 2.01008 $w=4.28e-07 $l=7.5e-08 $layer=LI1_cond $X=1.68 $Y=1.565
+ $X2=1.605 $Y2=1.565
r101 31 48 10.8544 $w=4.28e-07 $l=4.05e-07 $layer=LI1_cond $X=1.2 $Y=1.565
+ $X2=1.605 $Y2=1.565
r102 30 31 12.8645 $w=4.28e-07 $l=4.8e-07 $layer=LI1_cond $X=0.72 $Y=1.565
+ $X2=1.2 $Y2=1.565
r103 30 41 3.61813 $w=4.28e-07 $l=1.35e-07 $layer=LI1_cond $X=0.72 $Y=1.565
+ $X2=0.585 $Y2=1.565
r104 29 41 9.24634 $w=4.28e-07 $l=3.45e-07 $layer=LI1_cond $X=0.24 $Y=1.565
+ $X2=0.585 $Y2=1.565
r105 25 50 23.8357 $w=1.5e-07 $l=2.07e-07 $layer=POLY_cond $X=1.925 $Y=1.35
+ $X2=1.925 $Y2=1.557
r106 25 27 312.787 $w=1.5e-07 $l=6.1e-07 $layer=POLY_cond $X=1.925 $Y=1.35
+ $X2=1.925 $Y2=0.74
r107 22 49 23.8357 $w=1.5e-07 $l=2.08e-07 $layer=POLY_cond $X=1.87 $Y=1.765
+ $X2=1.87 $Y2=1.557
r108 22 24 204.047 $w=1.5e-07 $l=6.35e-07 $layer=POLY_cond $X=1.87 $Y=1.765
+ $X2=1.87 $Y2=2.4
r109 18 45 23.8357 $w=1.5e-07 $l=2.07e-07 $layer=POLY_cond $X=1.425 $Y=1.35
+ $X2=1.425 $Y2=1.557
r110 18 20 312.787 $w=1.5e-07 $l=6.1e-07 $layer=POLY_cond $X=1.425 $Y=1.35
+ $X2=1.425 $Y2=0.74
r111 15 44 23.8357 $w=1.5e-07 $l=2.08e-07 $layer=POLY_cond $X=1.42 $Y=1.765
+ $X2=1.42 $Y2=1.557
r112 15 17 204.047 $w=1.5e-07 $l=6.35e-07 $layer=POLY_cond $X=1.42 $Y=1.765
+ $X2=1.42 $Y2=2.4
r113 11 43 23.8357 $w=1.5e-07 $l=2.07e-07 $layer=POLY_cond $X=0.995 $Y=1.35
+ $X2=0.995 $Y2=1.557
r114 11 13 312.787 $w=1.5e-07 $l=6.1e-07 $layer=POLY_cond $X=0.995 $Y=1.35
+ $X2=0.995 $Y2=0.74
r115 8 42 23.8357 $w=1.5e-07 $l=2.08e-07 $layer=POLY_cond $X=0.97 $Y=1.765
+ $X2=0.97 $Y2=1.557
r116 8 10 204.047 $w=1.5e-07 $l=6.35e-07 $layer=POLY_cond $X=0.97 $Y=1.765
+ $X2=0.97 $Y2=2.4
r117 5 38 23.8357 $w=1.5e-07 $l=2.08e-07 $layer=POLY_cond $X=0.52 $Y=1.765
+ $X2=0.52 $Y2=1.557
r118 5 7 204.047 $w=1.5e-07 $l=6.35e-07 $layer=POLY_cond $X=0.52 $Y=1.765
+ $X2=0.52 $Y2=2.4
r119 1 37 23.8357 $w=1.5e-07 $l=2.07e-07 $layer=POLY_cond $X=0.495 $Y=1.35
+ $X2=0.495 $Y2=1.557
r120 1 3 312.787 $w=1.5e-07 $l=6.1e-07 $layer=POLY_cond $X=0.495 $Y=1.35
+ $X2=0.495 $Y2=0.74
.ends

.subckt PM_SKY130_FD_SC_HS__O211AI_4%A2 3 5 7 10 12 14 17 19 21 24 26 28 29 30
+ 31 32 33 51
c91 33 0 1.87641e-19 $X=4.08 $Y=1.665
c92 26 0 5.36423e-20 $X=3.77 $Y=1.765
c93 5 0 9.71509e-21 $X=2.37 $Y=1.765
r94 49 51 25.5703 $w=3.77e-07 $l=2e-07 $layer=POLY_cond $X=3.465 $Y=1.557
+ $X2=3.665 $Y2=1.557
r95 49 50 72.64 $w=1.7e-07 $l=3.4e-07 $layer=licon1_POLY $count=2 $X=3.465
+ $Y=1.515 $X2=3.465 $Y2=1.515
r96 47 49 24.931 $w=3.77e-07 $l=1.95e-07 $layer=POLY_cond $X=3.27 $Y=1.557
+ $X2=3.465 $Y2=1.557
r97 46 47 7.03183 $w=3.77e-07 $l=5.5e-08 $layer=POLY_cond $X=3.215 $Y=1.557
+ $X2=3.27 $Y2=1.557
r98 45 46 50.5013 $w=3.77e-07 $l=3.95e-07 $layer=POLY_cond $X=2.82 $Y=1.557
+ $X2=3.215 $Y2=1.557
r99 44 45 4.4748 $w=3.77e-07 $l=3.5e-08 $layer=POLY_cond $X=2.785 $Y=1.557
+ $X2=2.82 $Y2=1.557
r100 42 44 43.4695 $w=3.77e-07 $l=3.4e-07 $layer=POLY_cond $X=2.445 $Y=1.557
+ $X2=2.785 $Y2=1.557
r101 42 43 72.64 $w=1.7e-07 $l=3.4e-07 $layer=licon1_POLY $count=2 $X=2.445
+ $Y=1.515 $X2=2.445 $Y2=1.515
r102 40 42 9.58886 $w=3.77e-07 $l=7.5e-08 $layer=POLY_cond $X=2.37 $Y=1.557
+ $X2=2.445 $Y2=1.557
r103 39 40 1.91777 $w=3.77e-07 $l=1.5e-08 $layer=POLY_cond $X=2.355 $Y=1.557
+ $X2=2.37 $Y2=1.557
r104 32 33 12.8645 $w=4.28e-07 $l=4.8e-07 $layer=LI1_cond $X=3.6 $Y=1.565
+ $X2=4.08 $Y2=1.565
r105 32 50 3.61813 $w=4.28e-07 $l=1.35e-07 $layer=LI1_cond $X=3.6 $Y=1.565
+ $X2=3.465 $Y2=1.565
r106 31 50 9.24634 $w=4.28e-07 $l=3.45e-07 $layer=LI1_cond $X=3.12 $Y=1.565
+ $X2=3.465 $Y2=1.565
r107 30 31 12.8645 $w=4.28e-07 $l=4.8e-07 $layer=LI1_cond $X=2.64 $Y=1.565
+ $X2=3.12 $Y2=1.565
r108 30 43 5.22619 $w=4.28e-07 $l=1.95e-07 $layer=LI1_cond $X=2.64 $Y=1.565
+ $X2=2.445 $Y2=1.565
r109 29 43 7.63829 $w=4.28e-07 $l=2.85e-07 $layer=LI1_cond $X=2.16 $Y=1.565
+ $X2=2.445 $Y2=1.565
r110 26 51 13.4244 $w=3.77e-07 $l=2.55155e-07 $layer=POLY_cond $X=3.77 $Y=1.765
+ $X2=3.665 $Y2=1.557
r111 26 28 204.047 $w=1.5e-07 $l=6.35e-07 $layer=POLY_cond $X=3.77 $Y=1.765
+ $X2=3.77 $Y2=2.4
r112 22 51 24.4204 $w=1.5e-07 $l=2.07e-07 $layer=POLY_cond $X=3.665 $Y=1.35
+ $X2=3.665 $Y2=1.557
r113 22 24 312.787 $w=1.5e-07 $l=6.1e-07 $layer=POLY_cond $X=3.665 $Y=1.35
+ $X2=3.665 $Y2=0.74
r114 19 47 24.4204 $w=1.5e-07 $l=2.08e-07 $layer=POLY_cond $X=3.27 $Y=1.765
+ $X2=3.27 $Y2=1.557
r115 19 21 204.047 $w=1.5e-07 $l=6.35e-07 $layer=POLY_cond $X=3.27 $Y=1.765
+ $X2=3.27 $Y2=2.4
r116 15 46 24.4204 $w=1.5e-07 $l=2.07e-07 $layer=POLY_cond $X=3.215 $Y=1.35
+ $X2=3.215 $Y2=1.557
r117 15 17 312.787 $w=1.5e-07 $l=6.1e-07 $layer=POLY_cond $X=3.215 $Y=1.35
+ $X2=3.215 $Y2=0.74
r118 12 45 24.4204 $w=1.5e-07 $l=2.08e-07 $layer=POLY_cond $X=2.82 $Y=1.765
+ $X2=2.82 $Y2=1.557
r119 12 14 204.047 $w=1.5e-07 $l=6.35e-07 $layer=POLY_cond $X=2.82 $Y=1.765
+ $X2=2.82 $Y2=2.4
r120 8 44 24.4204 $w=1.5e-07 $l=2.07e-07 $layer=POLY_cond $X=2.785 $Y=1.35
+ $X2=2.785 $Y2=1.557
r121 8 10 312.787 $w=1.5e-07 $l=6.1e-07 $layer=POLY_cond $X=2.785 $Y=1.35
+ $X2=2.785 $Y2=0.74
r122 5 40 24.4204 $w=1.5e-07 $l=2.08e-07 $layer=POLY_cond $X=2.37 $Y=1.765
+ $X2=2.37 $Y2=1.557
r123 5 7 204.047 $w=1.5e-07 $l=6.35e-07 $layer=POLY_cond $X=2.37 $Y=1.765
+ $X2=2.37 $Y2=2.4
r124 1 39 24.4204 $w=1.5e-07 $l=2.07e-07 $layer=POLY_cond $X=2.355 $Y=1.35
+ $X2=2.355 $Y2=1.557
r125 1 3 312.787 $w=1.5e-07 $l=6.1e-07 $layer=POLY_cond $X=2.355 $Y=1.35
+ $X2=2.355 $Y2=0.74
.ends

.subckt PM_SKY130_FD_SC_HS__O211AI_4%B1 1 3 4 5 6 8 9 11 14 16 18 21 23 24 25 38
c72 25 0 1.65116e-19 $X=5.52 $Y=1.665
c73 16 0 1.96196e-19 $X=5.37 $Y=1.765
c74 9 0 5.72781e-20 $X=4.83 $Y=1.765
r75 36 38 9.41406 $w=3.84e-07 $l=7.5e-08 $layer=POLY_cond $X=5.295 $Y=1.475
+ $X2=5.37 $Y2=1.475
r76 36 37 72.64 $w=1.7e-07 $l=3.4e-07 $layer=licon1_POLY $count=2 $X=5.295
+ $Y=1.515 $X2=5.295 $Y2=1.515
r77 31 33 26.987 $w=3.84e-07 $l=2.15e-07 $layer=POLY_cond $X=4.615 $Y=1.475
+ $X2=4.83 $Y2=1.475
r78 31 32 145.28 $w=1.7e-07 $l=1.7e-07 $layer=licon1_POLY $count=1 $X=4.615
+ $Y=1.515 $X2=4.615 $Y2=1.515
r79 29 31 11.2969 $w=3.84e-07 $l=9e-08 $layer=POLY_cond $X=4.525 $Y=1.475
+ $X2=4.615 $Y2=1.475
r80 25 37 6.03022 $w=4.28e-07 $l=2.25e-07 $layer=LI1_cond $X=5.52 $Y=1.565
+ $X2=5.295 $Y2=1.565
r81 24 37 6.83426 $w=4.28e-07 $l=2.55e-07 $layer=LI1_cond $X=5.04 $Y=1.565
+ $X2=5.295 $Y2=1.565
r82 24 32 11.3904 $w=4.28e-07 $l=4.25e-07 $layer=LI1_cond $X=5.04 $Y=1.565
+ $X2=4.615 $Y2=1.565
r83 23 32 1.47406 $w=4.28e-07 $l=5.5e-08 $layer=LI1_cond $X=4.56 $Y=1.565
+ $X2=4.615 $Y2=1.565
r84 19 38 1.88281 $w=3.84e-07 $l=1.5e-08 $layer=POLY_cond $X=5.385 $Y=1.475
+ $X2=5.37 $Y2=1.475
r85 19 21 312.787 $w=1.5e-07 $l=6.1e-07 $layer=POLY_cond $X=5.385 $Y=1.35
+ $X2=5.385 $Y2=0.74
r86 16 38 24.8669 $w=1.5e-07 $l=2.9e-07 $layer=POLY_cond $X=5.37 $Y=1.765
+ $X2=5.37 $Y2=1.475
r87 16 18 204.047 $w=1.5e-07 $l=6.35e-07 $layer=POLY_cond $X=5.37 $Y=1.765
+ $X2=5.37 $Y2=2.4
r88 12 36 42.6771 $w=3.84e-07 $l=3.4e-07 $layer=POLY_cond $X=4.955 $Y=1.475
+ $X2=5.295 $Y2=1.475
r89 12 33 15.6901 $w=3.84e-07 $l=1.25e-07 $layer=POLY_cond $X=4.955 $Y=1.475
+ $X2=4.83 $Y2=1.475
r90 12 14 312.787 $w=1.5e-07 $l=6.1e-07 $layer=POLY_cond $X=4.955 $Y=1.35
+ $X2=4.955 $Y2=0.74
r91 9 33 24.8669 $w=1.5e-07 $l=2.9e-07 $layer=POLY_cond $X=4.83 $Y=1.765
+ $X2=4.83 $Y2=1.475
r92 9 11 204.047 $w=1.5e-07 $l=6.35e-07 $layer=POLY_cond $X=4.83 $Y=1.765
+ $X2=4.83 $Y2=2.4
r93 6 29 24.8669 $w=1.5e-07 $l=2.9e-07 $layer=POLY_cond $X=4.525 $Y=1.185
+ $X2=4.525 $Y2=1.475
r94 6 8 142.993 $w=1.5e-07 $l=4.45e-07 $layer=POLY_cond $X=4.525 $Y=1.185
+ $X2=4.525 $Y2=0.74
r95 4 29 27.9904 $w=3.84e-07 $l=2.497e-07 $layer=POLY_cond $X=4.45 $Y=1.26
+ $X2=4.525 $Y2=1.475
r96 4 5 143.574 $w=1.5e-07 $l=2.8e-07 $layer=POLY_cond $X=4.45 $Y=1.26 $X2=4.17
+ $Y2=1.26
r97 1 5 26.9307 $w=1.5e-07 $l=1.06066e-07 $layer=POLY_cond $X=4.095 $Y=1.185
+ $X2=4.17 $Y2=1.26
r98 1 3 142.993 $w=1.5e-07 $l=4.45e-07 $layer=POLY_cond $X=4.095 $Y=1.185
+ $X2=4.095 $Y2=0.74
.ends

.subckt PM_SKY130_FD_SC_HS__O211AI_4%C1 1 3 4 6 9 13 15 16 19 21 25 27 28 29 30
c73 30 0 1.16362e-20 $X=6.96 $Y=1.665
c74 1 0 1.11474e-19 $X=5.88 $Y=1.765
r75 41 43 12.1173 $w=3.58e-07 $l=9e-08 $layer=POLY_cond $X=6.715 $Y=1.557
+ $X2=6.805 $Y2=1.557
r76 41 42 96.8533 $w=1.7e-07 $l=2.55e-07 $layer=licon1_POLY $count=1 $X=6.715
+ $Y=1.515 $X2=6.715 $Y2=1.515
r77 39 41 45.7765 $w=3.58e-07 $l=3.4e-07 $layer=POLY_cond $X=6.375 $Y=1.557
+ $X2=6.715 $Y2=1.557
r78 38 39 6.05866 $w=3.58e-07 $l=4.5e-08 $layer=POLY_cond $X=6.33 $Y=1.557
+ $X2=6.375 $Y2=1.557
r79 36 38 39.7179 $w=3.58e-07 $l=2.95e-07 $layer=POLY_cond $X=6.035 $Y=1.557
+ $X2=6.33 $Y2=1.557
r80 36 37 96.8533 $w=1.7e-07 $l=2.55e-07 $layer=licon1_POLY $count=1 $X=6.035
+ $Y=1.515 $X2=6.035 $Y2=1.515
r81 34 36 20.8687 $w=3.58e-07 $l=1.55e-07 $layer=POLY_cond $X=5.88 $Y=1.557
+ $X2=6.035 $Y2=1.557
r82 30 42 6.56625 $w=4.28e-07 $l=2.45e-07 $layer=LI1_cond $X=6.96 $Y=1.565
+ $X2=6.715 $Y2=1.565
r83 29 42 6.29823 $w=4.28e-07 $l=2.35e-07 $layer=LI1_cond $X=6.48 $Y=1.565
+ $X2=6.715 $Y2=1.565
r84 29 37 11.9264 $w=4.28e-07 $l=4.45e-07 $layer=LI1_cond $X=6.48 $Y=1.565
+ $X2=6.035 $Y2=1.565
r85 28 37 0.938035 $w=4.28e-07 $l=3.5e-08 $layer=LI1_cond $X=6 $Y=1.565
+ $X2=6.035 $Y2=1.565
r86 23 25 287.149 $w=1.5e-07 $l=5.6e-07 $layer=POLY_cond $X=7.665 $Y=1.35
+ $X2=7.665 $Y2=0.79
r87 22 27 20.4101 $w=1.5e-07 $l=7.5e-08 $layer=POLY_cond $X=7.31 $Y=1.425
+ $X2=7.235 $Y2=1.425
r88 21 23 26.9307 $w=1.5e-07 $l=1.06066e-07 $layer=POLY_cond $X=7.59 $Y=1.425
+ $X2=7.665 $Y2=1.35
r89 21 22 143.574 $w=1.5e-07 $l=2.8e-07 $layer=POLY_cond $X=7.59 $Y=1.425
+ $X2=7.31 $Y2=1.425
r90 17 27 5.30422 $w=1.5e-07 $l=7.5e-08 $layer=POLY_cond $X=7.235 $Y=1.35
+ $X2=7.235 $Y2=1.425
r91 17 19 287.149 $w=1.5e-07 $l=5.6e-07 $layer=POLY_cond $X=7.235 $Y=1.35
+ $X2=7.235 $Y2=0.79
r92 16 43 26.7661 $w=3.58e-07 $l=1.653e-07 $layer=POLY_cond $X=6.88 $Y=1.425
+ $X2=6.805 $Y2=1.557
r93 15 27 20.4101 $w=1.5e-07 $l=7.5e-08 $layer=POLY_cond $X=7.16 $Y=1.425
+ $X2=7.235 $Y2=1.425
r94 15 16 143.574 $w=1.5e-07 $l=2.8e-07 $layer=POLY_cond $X=7.16 $Y=1.425
+ $X2=6.88 $Y2=1.425
r95 11 43 23.1716 $w=1.5e-07 $l=2.07e-07 $layer=POLY_cond $X=6.805 $Y=1.35
+ $X2=6.805 $Y2=1.557
r96 11 13 287.149 $w=1.5e-07 $l=5.6e-07 $layer=POLY_cond $X=6.805 $Y=1.35
+ $X2=6.805 $Y2=0.79
r97 7 39 23.1716 $w=1.5e-07 $l=2.07e-07 $layer=POLY_cond $X=6.375 $Y=1.35
+ $X2=6.375 $Y2=1.557
r98 7 9 287.149 $w=1.5e-07 $l=5.6e-07 $layer=POLY_cond $X=6.375 $Y=1.35
+ $X2=6.375 $Y2=0.79
r99 4 38 23.1716 $w=1.5e-07 $l=2.08e-07 $layer=POLY_cond $X=6.33 $Y=1.765
+ $X2=6.33 $Y2=1.557
r100 4 6 204.047 $w=1.5e-07 $l=6.35e-07 $layer=POLY_cond $X=6.33 $Y=1.765
+ $X2=6.33 $Y2=2.4
r101 1 34 23.1716 $w=1.5e-07 $l=2.08e-07 $layer=POLY_cond $X=5.88 $Y=1.765
+ $X2=5.88 $Y2=1.557
r102 1 3 204.047 $w=1.5e-07 $l=6.35e-07 $layer=POLY_cond $X=5.88 $Y=1.765
+ $X2=5.88 $Y2=2.4
.ends

.subckt PM_SKY130_FD_SC_HS__O211AI_4%A_30_368# 1 2 3 4 5 16 18 20 24 26 28 31 32
+ 33 36 38 42 47 50
r74 40 42 18.5089 $w=3.28e-07 $l=5.3e-07 $layer=LI1_cond $X=4.045 $Y=2.905
+ $X2=4.045 $Y2=2.375
r75 39 50 7.02821 $w=1.7e-07 $l=1.25e-07 $layer=LI1_cond $X=3.21 $Y=2.99
+ $X2=3.085 $Y2=2.99
r76 38 40 7.76618 $w=1.7e-07 $l=2.03101e-07 $layer=LI1_cond $X=3.88 $Y=2.99
+ $X2=4.045 $Y2=2.905
r77 38 39 43.7112 $w=1.68e-07 $l=6.7e-07 $layer=LI1_cond $X=3.88 $Y=2.99
+ $X2=3.21 $Y2=2.99
r78 34 50 0.00168595 $w=2.5e-07 $l=8.5e-08 $layer=LI1_cond $X=3.085 $Y=2.905
+ $X2=3.085 $Y2=2.99
r79 34 36 20.744 $w=2.48e-07 $l=4.5e-07 $layer=LI1_cond $X=3.085 $Y=2.905
+ $X2=3.085 $Y2=2.455
r80 32 50 7.02821 $w=1.7e-07 $l=1.25e-07 $layer=LI1_cond $X=2.96 $Y=2.99
+ $X2=3.085 $Y2=2.99
r81 32 33 45.6684 $w=1.68e-07 $l=7e-07 $layer=LI1_cond $X=2.96 $Y=2.99 $X2=2.26
+ $Y2=2.99
r82 29 33 7.76618 $w=1.7e-07 $l=2.03101e-07 $layer=LI1_cond $X=2.095 $Y=2.905
+ $X2=2.26 $Y2=2.99
r83 29 31 3.14303 $w=3.28e-07 $l=9e-08 $layer=LI1_cond $X=2.095 $Y=2.905
+ $X2=2.095 $Y2=2.815
r84 28 49 2.6405 $w=3.3e-07 $l=8.5e-08 $layer=LI1_cond $X=2.095 $Y=2.12
+ $X2=2.095 $Y2=2.035
r85 28 31 24.2711 $w=3.28e-07 $l=6.95e-07 $layer=LI1_cond $X=2.095 $Y=2.12
+ $X2=2.095 $Y2=2.815
r86 27 47 8.61065 $w=1.7e-07 $l=1.65e-07 $layer=LI1_cond $X=1.36 $Y=2.035
+ $X2=1.195 $Y2=2.035
r87 26 49 5.12568 $w=1.7e-07 $l=1.65e-07 $layer=LI1_cond $X=1.93 $Y=2.035
+ $X2=2.095 $Y2=2.035
r88 26 27 37.1872 $w=1.68e-07 $l=5.7e-07 $layer=LI1_cond $X=1.93 $Y=2.035
+ $X2=1.36 $Y2=2.035
r89 22 47 0.89609 $w=3.3e-07 $l=8.5e-08 $layer=LI1_cond $X=1.195 $Y=2.12
+ $X2=1.195 $Y2=2.035
r90 22 24 24.2711 $w=3.28e-07 $l=6.95e-07 $layer=LI1_cond $X=1.195 $Y=2.12
+ $X2=1.195 $Y2=2.815
r91 21 45 5.12568 $w=1.7e-07 $l=1.65e-07 $layer=LI1_cond $X=0.46 $Y=2.035
+ $X2=0.295 $Y2=2.035
r92 20 47 8.61065 $w=1.7e-07 $l=1.65e-07 $layer=LI1_cond $X=1.03 $Y=2.035
+ $X2=1.195 $Y2=2.035
r93 20 21 37.1872 $w=1.68e-07 $l=5.7e-07 $layer=LI1_cond $X=1.03 $Y=2.035
+ $X2=0.46 $Y2=2.035
r94 16 45 2.6405 $w=3.3e-07 $l=8.5e-08 $layer=LI1_cond $X=0.295 $Y=2.12
+ $X2=0.295 $Y2=2.035
r95 16 18 24.2711 $w=3.28e-07 $l=6.95e-07 $layer=LI1_cond $X=0.295 $Y=2.12
+ $X2=0.295 $Y2=2.815
r96 5 42 300 $w=1.7e-07 $l=6.27077e-07 $layer=licon1_PDIFF $count=2 $X=3.845
+ $Y=1.84 $X2=4.045 $Y2=2.375
r97 4 36 300 $w=1.7e-07 $l=6.85912e-07 $layer=licon1_PDIFF $count=2 $X=2.895
+ $Y=1.84 $X2=3.045 $Y2=2.455
r98 3 49 400 $w=1.7e-07 $l=3.4187e-07 $layer=licon1_PDIFF $count=1 $X=1.945
+ $Y=1.84 $X2=2.095 $Y2=2.115
r99 3 31 400 $w=1.7e-07 $l=1.04732e-06 $layer=licon1_PDIFF $count=1 $X=1.945
+ $Y=1.84 $X2=2.095 $Y2=2.815
r100 2 47 400 $w=1.7e-07 $l=3.4187e-07 $layer=licon1_PDIFF $count=1 $X=1.045
+ $Y=1.84 $X2=1.195 $Y2=2.115
r101 2 24 400 $w=1.7e-07 $l=1.04732e-06 $layer=licon1_PDIFF $count=1 $X=1.045
+ $Y=1.84 $X2=1.195 $Y2=2.815
r102 1 45 400 $w=1.7e-07 $l=3.39853e-07 $layer=licon1_PDIFF $count=1 $X=0.15
+ $Y=1.84 $X2=0.295 $Y2=2.115
r103 1 18 400 $w=1.7e-07 $l=1.04499e-06 $layer=licon1_PDIFF $count=1 $X=0.15
+ $Y=1.84 $X2=0.295 $Y2=2.815
.ends

.subckt PM_SKY130_FD_SC_HS__O211AI_4%VPWR 1 2 3 4 5 20 24 28 30 34 36 40 42 44
+ 49 56 57 60 63 66 69 72
r92 73 75 0.133793 $w=4.9e-07 $l=4.8e-07 $layer=MET1_cond $X=6.96 $Y=3.33
+ $X2=6.48 $Y2=3.33
r93 72 75 4.65 $w=1.7e-07 $l=3.4e-07 $layer=mcon $count=2 $X=6.48 $Y=3.33
+ $X2=6.48 $Y2=3.33
r94 72 73 9.3 $w=1.7e-07 $l=1.7e-07 $layer=mcon $count=1 $X=6.96 $Y=3.33
+ $X2=6.96 $Y2=3.33
r95 70 75 0.267585 $w=4.9e-07 $l=9.6e-07 $layer=MET1_cond $X=5.52 $Y=3.33
+ $X2=6.48 $Y2=3.33
r96 69 70 4.65 $w=1.7e-07 $l=3.4e-07 $layer=mcon $count=2 $X=5.52 $Y=3.33
+ $X2=5.52 $Y2=3.33
r97 67 70 0.267585 $w=4.9e-07 $l=9.6e-07 $layer=MET1_cond $X=4.56 $Y=3.33
+ $X2=5.52 $Y2=3.33
r98 66 67 9.3 $w=1.7e-07 $l=1.7e-07 $layer=mcon $count=1 $X=4.56 $Y=3.33
+ $X2=4.56 $Y2=3.33
r99 63 64 3.1 $w=1.7e-07 $l=5.1e-07 $layer=mcon $count=3 $X=1.68 $Y=3.33
+ $X2=1.68 $Y2=3.33
r100 60 61 4.65 $w=1.7e-07 $l=3.4e-07 $layer=mcon $count=2 $X=0.72 $Y=3.33
+ $X2=0.72 $Y2=3.33
r101 57 73 0.267585 $w=4.9e-07 $l=9.6e-07 $layer=MET1_cond $X=7.92 $Y=3.33
+ $X2=6.96 $Y2=3.33
r102 56 57 4.65 $w=1.7e-07 $l=3.4e-07 $layer=mcon $count=2 $X=7.92 $Y=3.33
+ $X2=7.92 $Y2=3.33
r103 54 72 15.0812 $w=1.7e-07 $l=4.25e-07 $layer=LI1_cond $X=7.29 $Y=3.33
+ $X2=6.865 $Y2=3.33
r104 54 56 41.1016 $w=1.68e-07 $l=6.3e-07 $layer=LI1_cond $X=7.29 $Y=3.33
+ $X2=7.92 $Y2=3.33
r105 50 63 5.16603 $w=1.7e-07 $l=8.5e-08 $layer=LI1_cond $X=1.73 $Y=3.33
+ $X2=1.645 $Y2=3.33
r106 50 52 153.316 $w=1.68e-07 $l=2.35e-06 $layer=LI1_cond $X=1.73 $Y=3.33
+ $X2=4.08 $Y2=3.33
r107 49 66 8.61065 $w=1.7e-07 $l=1.65e-07 $layer=LI1_cond $X=4.44 $Y=3.33
+ $X2=4.605 $Y2=3.33
r108 49 52 23.4866 $w=1.68e-07 $l=3.6e-07 $layer=LI1_cond $X=4.44 $Y=3.33
+ $X2=4.08 $Y2=3.33
r109 48 64 0.133793 $w=4.9e-07 $l=4.8e-07 $layer=MET1_cond $X=1.2 $Y=3.33
+ $X2=1.68 $Y2=3.33
r110 48 61 0.133793 $w=4.9e-07 $l=4.8e-07 $layer=MET1_cond $X=1.2 $Y=3.33
+ $X2=0.72 $Y2=3.33
r111 47 48 9.3 $w=1.7e-07 $l=1.7e-07 $layer=mcon $count=1 $X=1.2 $Y=3.33 $X2=1.2
+ $Y2=3.33
r112 45 60 5.16603 $w=1.7e-07 $l=8.5e-08 $layer=LI1_cond $X=0.83 $Y=3.33
+ $X2=0.745 $Y2=3.33
r113 45 47 24.139 $w=1.68e-07 $l=3.7e-07 $layer=LI1_cond $X=0.83 $Y=3.33 $X2=1.2
+ $Y2=3.33
r114 44 63 5.16603 $w=1.7e-07 $l=8.5e-08 $layer=LI1_cond $X=1.56 $Y=3.33
+ $X2=1.645 $Y2=3.33
r115 44 47 23.4866 $w=1.68e-07 $l=3.6e-07 $layer=LI1_cond $X=1.56 $Y=3.33
+ $X2=1.2 $Y2=3.33
r116 42 67 0.133793 $w=4.9e-07 $l=4.8e-07 $layer=MET1_cond $X=4.08 $Y=3.33
+ $X2=4.56 $Y2=3.33
r117 42 64 0.668963 $w=4.9e-07 $l=2.4e-06 $layer=MET1_cond $X=4.08 $Y=3.33
+ $X2=1.68 $Y2=3.33
r118 42 52 3.1 $w=1.7e-07 $l=5.1e-07 $layer=mcon $count=3 $X=4.08 $Y=3.33
+ $X2=4.08 $Y2=3.33
r119 38 72 3.24638 $w=8.5e-07 $l=8.5e-08 $layer=LI1_cond $X=6.865 $Y=3.245
+ $X2=6.865 $Y2=3.33
r120 38 40 11.3388 $w=8.48e-07 $l=7.9e-07 $layer=LI1_cond $X=6.865 $Y=3.245
+ $X2=6.865 $Y2=2.455
r121 37 69 8.61065 $w=1.7e-07 $l=1.65e-07 $layer=LI1_cond $X=5.77 $Y=3.33
+ $X2=5.605 $Y2=3.33
r122 36 72 15.0812 $w=1.7e-07 $l=4.25e-07 $layer=LI1_cond $X=6.44 $Y=3.33
+ $X2=6.865 $Y2=3.33
r123 36 37 43.7112 $w=1.68e-07 $l=6.7e-07 $layer=LI1_cond $X=6.44 $Y=3.33
+ $X2=5.77 $Y2=3.33
r124 32 69 0.89609 $w=3.3e-07 $l=8.5e-08 $layer=LI1_cond $X=5.605 $Y=3.245
+ $X2=5.605 $Y2=3.33
r125 32 34 30.3826 $w=3.28e-07 $l=8.7e-07 $layer=LI1_cond $X=5.605 $Y=3.245
+ $X2=5.605 $Y2=2.375
r126 31 66 8.61065 $w=1.7e-07 $l=1.65e-07 $layer=LI1_cond $X=4.77 $Y=3.33
+ $X2=4.605 $Y2=3.33
r127 30 69 8.61065 $w=1.7e-07 $l=1.65e-07 $layer=LI1_cond $X=5.44 $Y=3.33
+ $X2=5.605 $Y2=3.33
r128 30 31 43.7112 $w=1.68e-07 $l=6.7e-07 $layer=LI1_cond $X=5.44 $Y=3.33
+ $X2=4.77 $Y2=3.33
r129 26 66 0.89609 $w=3.3e-07 $l=8.5e-08 $layer=LI1_cond $X=4.605 $Y=3.245
+ $X2=4.605 $Y2=3.33
r130 26 28 30.3826 $w=3.28e-07 $l=8.7e-07 $layer=LI1_cond $X=4.605 $Y=3.245
+ $X2=4.605 $Y2=2.375
r131 22 63 1.34256 $w=1.7e-07 $l=8.5e-08 $layer=LI1_cond $X=1.645 $Y=3.245
+ $X2=1.645 $Y2=3.33
r132 22 24 51.5401 $w=1.68e-07 $l=7.9e-07 $layer=LI1_cond $X=1.645 $Y=3.245
+ $X2=1.645 $Y2=2.455
r133 18 60 1.34256 $w=1.7e-07 $l=8.5e-08 $layer=LI1_cond $X=0.745 $Y=3.245
+ $X2=0.745 $Y2=3.33
r134 18 20 51.5401 $w=1.68e-07 $l=7.9e-07 $layer=LI1_cond $X=0.745 $Y=3.245
+ $X2=0.745 $Y2=2.455
r135 5 40 150 $w=1.7e-07 $l=9.80408e-07 $layer=licon1_PDIFF $count=4 $X=6.405
+ $Y=1.84 $X2=7.125 $Y2=2.455
r136 4 34 300 $w=1.7e-07 $l=6.09775e-07 $layer=licon1_PDIFF $count=2 $X=5.445
+ $Y=1.84 $X2=5.605 $Y2=2.375
r137 3 28 300 $w=1.7e-07 $l=6.03158e-07 $layer=licon1_PDIFF $count=2 $X=4.46
+ $Y=1.84 $X2=4.605 $Y2=2.375
r138 2 24 300 $w=1.7e-07 $l=6.85912e-07 $layer=licon1_PDIFF $count=2 $X=1.495
+ $Y=1.84 $X2=1.645 $Y2=2.455
r139 1 20 300 $w=1.7e-07 $l=6.85912e-07 $layer=licon1_PDIFF $count=2 $X=0.595
+ $Y=1.84 $X2=0.745 $Y2=2.455
.ends

.subckt PM_SKY130_FD_SC_HS__O211AI_4%Y 1 2 3 4 5 6 21 25 29 31 35 37 41 43 44 47
+ 52 54 56 58 59 60 61 62 63 77
c97 59 0 1.29151e-19 $X=7.455 $Y=1.095
c98 29 0 1.8456e-19 $X=5.105 $Y=2.815
r99 62 63 9.03161 $w=4.88e-07 $l=3.7e-07 $layer=LI1_cond $X=7.79 $Y=2.405
+ $X2=7.79 $Y2=2.775
r100 61 62 5.98354 $w=6.58e-07 $l=2.85e-07 $layer=LI1_cond $X=7.79 $Y=2.12
+ $X2=7.79 $Y2=2.405
r101 60 61 6.60521 $w=6.68e-07 $l=3.7e-07 $layer=LI1_cond $X=7.7 $Y=1.665
+ $X2=7.7 $Y2=2.035
r102 60 77 9.30395 $w=6.68e-07 $l=1.15e-07 $layer=LI1_cond $X=7.7 $Y=1.665
+ $X2=7.7 $Y2=1.55
r103 49 59 4.92476 $w=1.8e-07 $l=8.5e-08 $layer=LI1_cond $X=7.455 $Y=1.18
+ $X2=7.455 $Y2=1.095
r104 49 77 22.798 $w=1.78e-07 $l=3.7e-07 $layer=LI1_cond $X=7.455 $Y=1.18
+ $X2=7.455 $Y2=1.55
r105 45 59 4.92476 $w=1.8e-07 $l=8.5e-08 $layer=LI1_cond $X=7.455 $Y=1.01
+ $X2=7.455 $Y2=1.095
r106 45 47 7.70202 $w=1.78e-07 $l=1.25e-07 $layer=LI1_cond $X=7.455 $Y=1.01
+ $X2=7.455 $Y2=0.885
r107 43 59 1.54918 $w=1.7e-07 $l=9e-08 $layer=LI1_cond $X=7.365 $Y=1.095
+ $X2=7.455 $Y2=1.095
r108 43 44 45.016 $w=1.68e-07 $l=6.9e-07 $layer=LI1_cond $X=7.365 $Y=1.095
+ $X2=6.675 $Y2=1.095
r109 39 44 6.81649 $w=1.7e-07 $l=1.20208e-07 $layer=LI1_cond $X=6.59 $Y=1.01
+ $X2=6.675 $Y2=1.095
r110 39 41 8.15508 $w=1.68e-07 $l=1.25e-07 $layer=LI1_cond $X=6.59 $Y=1.01
+ $X2=6.59 $Y2=0.885
r111 38 58 8.61065 $w=1.7e-07 $l=1.65e-07 $layer=LI1_cond $X=6.27 $Y=2.035
+ $X2=6.105 $Y2=2.035
r112 37 61 9.03384 $w=1.7e-07 $l=3.35e-07 $layer=LI1_cond $X=7.365 $Y=2.035
+ $X2=7.7 $Y2=2.035
r113 37 38 71.4385 $w=1.68e-07 $l=1.095e-06 $layer=LI1_cond $X=7.365 $Y=2.035
+ $X2=6.27 $Y2=2.035
r114 33 58 0.89609 $w=3.3e-07 $l=8.5e-08 $layer=LI1_cond $X=6.105 $Y=2.12
+ $X2=6.105 $Y2=2.035
r115 33 35 24.2711 $w=3.28e-07 $l=6.95e-07 $layer=LI1_cond $X=6.105 $Y=2.12
+ $X2=6.105 $Y2=2.815
r116 32 56 8.61065 $w=1.7e-07 $l=1.65e-07 $layer=LI1_cond $X=5.27 $Y=2.035
+ $X2=5.105 $Y2=2.035
r117 31 58 8.61065 $w=1.7e-07 $l=1.65e-07 $layer=LI1_cond $X=5.94 $Y=2.035
+ $X2=6.105 $Y2=2.035
r118 31 32 43.7112 $w=1.68e-07 $l=6.7e-07 $layer=LI1_cond $X=5.94 $Y=2.035
+ $X2=5.27 $Y2=2.035
r119 27 56 0.89609 $w=3.3e-07 $l=8.5e-08 $layer=LI1_cond $X=5.105 $Y=2.12
+ $X2=5.105 $Y2=2.035
r120 27 29 24.2711 $w=3.28e-07 $l=6.95e-07 $layer=LI1_cond $X=5.105 $Y=2.12
+ $X2=5.105 $Y2=2.815
r121 26 54 8.61065 $w=1.7e-07 $l=1.65e-07 $layer=LI1_cond $X=3.71 $Y=2.035
+ $X2=3.545 $Y2=2.035
r122 25 56 8.61065 $w=1.7e-07 $l=1.65e-07 $layer=LI1_cond $X=4.94 $Y=2.035
+ $X2=5.105 $Y2=2.035
r123 25 26 80.246 $w=1.68e-07 $l=1.23e-06 $layer=LI1_cond $X=4.94 $Y=2.035
+ $X2=3.71 $Y2=2.035
r124 22 52 5.12568 $w=1.7e-07 $l=1.65e-07 $layer=LI1_cond $X=2.76 $Y=2.035
+ $X2=2.595 $Y2=2.035
r125 21 54 8.61065 $w=1.7e-07 $l=1.65e-07 $layer=LI1_cond $X=3.38 $Y=2.035
+ $X2=3.545 $Y2=2.035
r126 21 22 40.4492 $w=1.68e-07 $l=6.2e-07 $layer=LI1_cond $X=3.38 $Y=2.035
+ $X2=2.76 $Y2=2.035
r127 6 58 400 $w=1.7e-07 $l=3.4187e-07 $layer=licon1_PDIFF $count=1 $X=5.955
+ $Y=1.84 $X2=6.105 $Y2=2.115
r128 6 35 400 $w=1.7e-07 $l=1.04732e-06 $layer=licon1_PDIFF $count=1 $X=5.955
+ $Y=1.84 $X2=6.105 $Y2=2.815
r129 5 56 400 $w=1.7e-07 $l=3.61421e-07 $layer=licon1_PDIFF $count=1 $X=4.905
+ $Y=1.84 $X2=5.105 $Y2=2.115
r130 5 29 400 $w=1.7e-07 $l=1.07034e-06 $layer=licon1_PDIFF $count=1 $X=4.905
+ $Y=1.84 $X2=5.105 $Y2=2.815
r131 4 54 300 $w=1.7e-07 $l=3.61421e-07 $layer=licon1_PDIFF $count=2 $X=3.345
+ $Y=1.84 $X2=3.545 $Y2=2.115
r132 3 52 300 $w=1.7e-07 $l=3.4187e-07 $layer=licon1_PDIFF $count=2 $X=2.445
+ $Y=1.84 $X2=2.595 $Y2=2.115
r133 2 47 182 $w=1.7e-07 $l=5.30401e-07 $layer=licon1_NDIFF $count=1 $X=7.31
+ $Y=0.42 $X2=7.45 $Y2=0.885
r134 1 41 182 $w=1.7e-07 $l=5.30401e-07 $layer=licon1_NDIFF $count=1 $X=6.45
+ $Y=0.42 $X2=6.59 $Y2=0.885
.ends

.subckt PM_SKY130_FD_SC_HS__O211AI_4%A_27_74# 1 2 3 4 5 6 7 24 26 27 30 32 36 38
+ 42 44 48 50 52 56 58 59 60 62 65
r111 64 65 8.51103 $w=3.58e-07 $l=1.65e-07 $layer=LI1_cond $X=4.74 $Y=1
+ $X2=4.905 $Y2=1
r112 54 56 5.23838 $w=3.28e-07 $l=1.5e-07 $layer=LI1_cond $X=5.6 $Y=1.01 $X2=5.6
+ $Y2=0.86
r113 52 54 7.76618 $w=1.7e-07 $l=2.03101e-07 $layer=LI1_cond $X=5.435 $Y=1.095
+ $X2=5.6 $Y2=1.01
r114 52 65 34.5775 $w=1.68e-07 $l=5.3e-07 $layer=LI1_cond $X=5.435 $Y=1.095
+ $X2=4.905 $Y2=1.095
r115 51 62 3.52026 $w=2.65e-07 $l=8.5e-08 $layer=LI1_cond $X=3.965 $Y=1 $X2=3.88
+ $Y2=1
r116 50 64 0.480185 $w=3.58e-07 $l=1.5e-08 $layer=LI1_cond $X=4.725 $Y=1
+ $X2=4.74 $Y2=1
r117 50 51 24.3294 $w=3.58e-07 $l=7.6e-07 $layer=LI1_cond $X=4.725 $Y=1
+ $X2=3.965 $Y2=1
r118 46 62 2.98021 $w=1.7e-07 $l=1.8e-07 $layer=LI1_cond $X=3.88 $Y=0.82
+ $X2=3.88 $Y2=1
r119 46 48 19.8984 $w=1.68e-07 $l=3.05e-07 $layer=LI1_cond $X=3.88 $Y=0.82
+ $X2=3.88 $Y2=0.515
r120 45 60 5.16603 $w=1.7e-07 $l=8.5e-08 $layer=LI1_cond $X=3.085 $Y=1.095 $X2=3
+ $Y2=1.095
r121 44 62 3.52026 $w=2.65e-07 $l=1.30767e-07 $layer=LI1_cond $X=3.795 $Y=1.095
+ $X2=3.88 $Y2=1
r122 44 45 46.3209 $w=1.68e-07 $l=7.1e-07 $layer=LI1_cond $X=3.795 $Y=1.095
+ $X2=3.085 $Y2=1.095
r123 40 60 1.34256 $w=1.7e-07 $l=8.5e-08 $layer=LI1_cond $X=3 $Y=1.01 $X2=3
+ $Y2=1.095
r124 40 42 32.2941 $w=1.68e-07 $l=4.95e-07 $layer=LI1_cond $X=3 $Y=1.01 $X2=3
+ $Y2=0.515
r125 39 59 5.16603 $w=1.7e-07 $l=8.5e-08 $layer=LI1_cond $X=2.225 $Y=1.095
+ $X2=2.14 $Y2=1.095
r126 38 60 5.16603 $w=1.7e-07 $l=8.5e-08 $layer=LI1_cond $X=2.915 $Y=1.095 $X2=3
+ $Y2=1.095
r127 38 39 45.016 $w=1.68e-07 $l=6.9e-07 $layer=LI1_cond $X=2.915 $Y=1.095
+ $X2=2.225 $Y2=1.095
r128 34 59 1.34256 $w=1.7e-07 $l=8.5e-08 $layer=LI1_cond $X=2.14 $Y=1.01
+ $X2=2.14 $Y2=1.095
r129 34 36 32.2941 $w=1.68e-07 $l=4.95e-07 $layer=LI1_cond $X=2.14 $Y=1.01
+ $X2=2.14 $Y2=0.515
r130 33 58 7.02821 $w=1.7e-07 $l=1.25e-07 $layer=LI1_cond $X=1.375 $Y=1.095
+ $X2=1.25 $Y2=1.095
r131 32 59 5.16603 $w=1.7e-07 $l=8.5e-08 $layer=LI1_cond $X=2.055 $Y=1.095
+ $X2=2.14 $Y2=1.095
r132 32 33 44.3636 $w=1.68e-07 $l=6.8e-07 $layer=LI1_cond $X=2.055 $Y=1.095
+ $X2=1.375 $Y2=1.095
r133 28 58 0.00168595 $w=2.5e-07 $l=8.5e-08 $layer=LI1_cond $X=1.25 $Y=1.01
+ $X2=1.25 $Y2=1.095
r134 28 30 22.8184 $w=2.48e-07 $l=4.95e-07 $layer=LI1_cond $X=1.25 $Y=1.01
+ $X2=1.25 $Y2=0.515
r135 26 58 7.02821 $w=1.7e-07 $l=1.25e-07 $layer=LI1_cond $X=1.125 $Y=1.095
+ $X2=1.25 $Y2=1.095
r136 26 27 44.3636 $w=1.68e-07 $l=6.8e-07 $layer=LI1_cond $X=1.125 $Y=1.095
+ $X2=0.445 $Y2=1.095
r137 22 27 7.76618 $w=1.7e-07 $l=2.03101e-07 $layer=LI1_cond $X=0.28 $Y=1.01
+ $X2=0.445 $Y2=1.095
r138 22 24 17.2866 $w=3.28e-07 $l=4.95e-07 $layer=LI1_cond $X=0.28 $Y=1.01
+ $X2=0.28 $Y2=0.515
r139 7 56 182 $w=1.7e-07 $l=5.55608e-07 $layer=licon1_NDIFF $count=1 $X=5.46
+ $Y=0.37 $X2=5.6 $Y2=0.86
r140 6 64 182 $w=1.7e-07 $l=6.4622e-07 $layer=licon1_NDIFF $count=1 $X=4.6
+ $Y=0.37 $X2=4.74 $Y2=0.95
r141 5 62 182 $w=1.7e-07 $l=6.61306e-07 $layer=licon1_NDIFF $count=1 $X=3.74
+ $Y=0.37 $X2=3.88 $Y2=0.965
r142 5 48 182 $w=1.7e-07 $l=2.03286e-07 $layer=licon1_NDIFF $count=1 $X=3.74
+ $Y=0.37 $X2=3.88 $Y2=0.515
r143 4 42 91 $w=1.7e-07 $l=2.03286e-07 $layer=licon1_NDIFF $count=2 $X=2.86
+ $Y=0.37 $X2=3 $Y2=0.515
r144 3 36 91 $w=1.7e-07 $l=2.03286e-07 $layer=licon1_NDIFF $count=2 $X=2 $Y=0.37
+ $X2=2.14 $Y2=0.515
r145 2 30 91 $w=1.7e-07 $l=2.03286e-07 $layer=licon1_NDIFF $count=2 $X=1.07
+ $Y=0.37 $X2=1.21 $Y2=0.515
r146 1 24 91 $w=1.7e-07 $l=2.05061e-07 $layer=licon1_NDIFF $count=2 $X=0.135
+ $Y=0.37 $X2=0.28 $Y2=0.515
.ends

.subckt PM_SKY130_FD_SC_HS__O211AI_4%VGND 1 2 3 4 15 19 23 27 30 31 32 34 39 44
+ 57 58 61 64 67
r94 67 68 9.3 $w=1.7e-07 $l=1.7e-07 $layer=mcon $count=1 $X=2.64 $Y=0 $X2=2.64
+ $Y2=0
r95 64 65 9.3 $w=1.7e-07 $l=1.7e-07 $layer=mcon $count=1 $X=1.68 $Y=0 $X2=1.68
+ $Y2=0
r96 61 62 9.3 $w=1.7e-07 $l=1.7e-07 $layer=mcon $count=1 $X=0.72 $Y=0 $X2=0.72
+ $Y2=0
r97 57 58 1.86 $w=1.7e-07 $l=8.5e-07 $layer=mcon $count=5 $X=7.92 $Y=0 $X2=7.92
+ $Y2=0
r98 54 57 281.84 $w=1.68e-07 $l=4.32e-06 $layer=LI1_cond $X=3.6 $Y=0 $X2=7.92
+ $Y2=0
r99 54 55 1.86 $w=1.7e-07 $l=8.5e-07 $layer=mcon $count=5 $X=3.6 $Y=0 $X2=3.6
+ $Y2=0
r100 52 55 0.133793 $w=4.9e-07 $l=4.8e-07 $layer=MET1_cond $X=3.12 $Y=0 $X2=3.6
+ $Y2=0
r101 52 68 0.133793 $w=4.9e-07 $l=4.8e-07 $layer=MET1_cond $X=3.12 $Y=0 $X2=2.64
+ $Y2=0
r102 51 52 9.3 $w=1.7e-07 $l=1.7e-07 $layer=mcon $count=1 $X=3.12 $Y=0 $X2=3.12
+ $Y2=0
r103 49 67 8.61065 $w=1.7e-07 $l=1.65e-07 $layer=LI1_cond $X=2.735 $Y=0 $X2=2.57
+ $Y2=0
r104 49 51 25.1176 $w=1.68e-07 $l=3.85e-07 $layer=LI1_cond $X=2.735 $Y=0
+ $X2=3.12 $Y2=0
r105 48 68 0.133793 $w=4.9e-07 $l=4.8e-07 $layer=MET1_cond $X=2.16 $Y=0 $X2=2.64
+ $Y2=0
r106 48 65 0.133793 $w=4.9e-07 $l=4.8e-07 $layer=MET1_cond $X=2.16 $Y=0 $X2=1.68
+ $Y2=0
r107 47 48 9.3 $w=1.7e-07 $l=1.7e-07 $layer=mcon $count=1 $X=2.16 $Y=0 $X2=2.16
+ $Y2=0
r108 45 64 8.61065 $w=1.7e-07 $l=1.65e-07 $layer=LI1_cond $X=1.875 $Y=0 $X2=1.71
+ $Y2=0
r109 45 47 18.5936 $w=1.68e-07 $l=2.85e-07 $layer=LI1_cond $X=1.875 $Y=0
+ $X2=2.16 $Y2=0
r110 44 67 8.61065 $w=1.7e-07 $l=1.65e-07 $layer=LI1_cond $X=2.405 $Y=0 $X2=2.57
+ $Y2=0
r111 44 47 15.984 $w=1.68e-07 $l=2.45e-07 $layer=LI1_cond $X=2.405 $Y=0 $X2=2.16
+ $Y2=0
r112 43 65 0.133793 $w=4.9e-07 $l=4.8e-07 $layer=MET1_cond $X=1.2 $Y=0 $X2=1.68
+ $Y2=0
r113 43 62 0.133793 $w=4.9e-07 $l=4.8e-07 $layer=MET1_cond $X=1.2 $Y=0 $X2=0.72
+ $Y2=0
r114 42 43 9.3 $w=1.7e-07 $l=1.7e-07 $layer=mcon $count=1 $X=1.2 $Y=0 $X2=1.2
+ $Y2=0
r115 40 61 8.61065 $w=1.7e-07 $l=1.65e-07 $layer=LI1_cond $X=0.945 $Y=0 $X2=0.78
+ $Y2=0
r116 40 42 16.6364 $w=1.68e-07 $l=2.55e-07 $layer=LI1_cond $X=0.945 $Y=0 $X2=1.2
+ $Y2=0
r117 39 64 8.61065 $w=1.7e-07 $l=1.65e-07 $layer=LI1_cond $X=1.545 $Y=0 $X2=1.71
+ $Y2=0
r118 39 42 22.508 $w=1.68e-07 $l=3.45e-07 $layer=LI1_cond $X=1.545 $Y=0 $X2=1.2
+ $Y2=0
r119 37 62 0.133793 $w=4.9e-07 $l=4.8e-07 $layer=MET1_cond $X=0.24 $Y=0 $X2=0.72
+ $Y2=0
r120 36 37 9.3 $w=1.7e-07 $l=1.7e-07 $layer=mcon $count=1 $X=0.24 $Y=0 $X2=0.24
+ $Y2=0
r121 34 61 8.61065 $w=1.7e-07 $l=1.65e-07 $layer=LI1_cond $X=0.615 $Y=0 $X2=0.78
+ $Y2=0
r122 34 36 24.4652 $w=1.68e-07 $l=3.75e-07 $layer=LI1_cond $X=0.615 $Y=0