* File: sky130_fd_sc_hs__sdfsbp_1.pex.spice
* Created: Tue Sep  1 20:22:57 2020
* Program "Calibre xRC"
* Version "v2018.4_34.26"
* Nominal Temperature: 27C
* Circuit Temperature: 27C
* 
.subckt PM_SKY130_FD_SC_HS__SDFSBP_1%A_27_74# 1 2 9 11 13 16 19 22 24 28 29 33
+ 36 37
c78 33 0 1.30292e-19 $X=1.96 $Y=1.995
c79 29 0 2.93935e-19 $X=0.975 $Y=1.115
c80 24 0 1.64248e-19 $X=1.795 $Y=2.375
c81 9 0 1.50564e-19 $X=1.065 $Y=0.58
r82 33 34 145.28 $w=1.7e-07 $l=1.7e-07 $layer=licon1_POLY $count=1 $X=1.96
+ $Y=1.995 $X2=1.96 $Y2=1.995
r83 31 33 13.5988 $w=2.48e-07 $l=2.95e-07 $layer=LI1_cond $X=1.92 $Y=2.29
+ $X2=1.92 $Y2=1.995
r84 29 39 46.2115 $w=3.3e-07 $l=1.65e-07 $layer=POLY_cond $X=0.975 $Y=1.115
+ $X2=0.975 $Y2=0.95
r85 28 29 145.28 $w=1.7e-07 $l=1.7e-07 $layer=licon1_POLY $count=1 $X=0.975
+ $Y=1.115 $X2=0.975 $Y2=1.115
r86 26 36 0.695019 $w=3.3e-07 $l=1.65e-07 $layer=LI1_cond $X=0.445 $Y=1.115
+ $X2=0.28 $Y2=1.115
r87 26 28 18.5089 $w=3.28e-07 $l=5.3e-07 $layer=LI1_cond $X=0.445 $Y=1.115
+ $X2=0.975 $Y2=1.115
r88 25 37 2.53056 $w=1.7e-07 $l=1.25e-07 $layer=LI1_cond $X=0.365 $Y=2.375
+ $X2=0.24 $Y2=2.375
r89 24 31 7.14316 $w=1.7e-07 $l=1.62019e-07 $layer=LI1_cond $X=1.795 $Y=2.375
+ $X2=1.92 $Y2=2.29
r90 24 25 93.2941 $w=1.68e-07 $l=1.43e-06 $layer=LI1_cond $X=1.795 $Y=2.375
+ $X2=0.365 $Y2=2.375
r91 20 37 3.91525 $w=2.35e-07 $l=8.5e-08 $layer=LI1_cond $X=0.24 $Y=2.46
+ $X2=0.24 $Y2=2.375
r92 20 22 0.230489 $w=2.48e-07 $l=5e-09 $layer=LI1_cond $X=0.24 $Y=2.46 $X2=0.24
+ $Y2=2.465
r93 19 37 3.91525 $w=2.35e-07 $l=9.21954e-08 $layer=LI1_cond $X=0.225 $Y=2.29
+ $X2=0.24 $Y2=2.375
r94 18 36 5.99569 $w=2.75e-07 $l=1.90526e-07 $layer=LI1_cond $X=0.225 $Y=1.28
+ $X2=0.28 $Y2=1.115
r95 18 19 52.9076 $w=2.18e-07 $l=1.01e-06 $layer=LI1_cond $X=0.225 $Y=1.28
+ $X2=0.225 $Y2=2.29
r96 14 36 5.99569 $w=2.75e-07 $l=1.65e-07 $layer=LI1_cond $X=0.28 $Y=0.95
+ $X2=0.28 $Y2=1.115
r97 14 16 12.9213 $w=3.28e-07 $l=3.7e-07 $layer=LI1_cond $X=0.28 $Y=0.95
+ $X2=0.28 $Y2=0.58
r98 11 34 52.2586 $w=2.99e-07 $l=2.7157e-07 $layer=POLY_cond $X=2.005 $Y=2.245
+ $X2=1.96 $Y2=1.995
r99 11 13 126.927 $w=1.5e-07 $l=3.95e-07 $layer=POLY_cond $X=2.005 $Y=2.245
+ $X2=2.005 $Y2=2.64
r100 9 39 189.723 $w=1.5e-07 $l=3.7e-07 $layer=POLY_cond $X=1.065 $Y=0.58
+ $X2=1.065 $Y2=0.95
r101 2 22 300 $w=1.7e-07 $l=2.05061e-07 $layer=licon1_PDIFF $count=2 $X=0.135
+ $Y=2.32 $X2=0.28 $Y2=2.465
r102 1 16 182 $w=1.7e-07 $l=2.73038e-07 $layer=licon1_NDIFF $count=1 $X=0.135
+ $Y=0.37 $X2=0.28 $Y2=0.58
.ends

.subckt PM_SKY130_FD_SC_HS__SDFSBP_1%SCE 2 5 7 9 10 12 17 19 20 23 24 28 33 39
c78 39 0 1.89796e-19 $X=0.67 $Y=1.535
c79 24 0 1.10806e-19 $X=1.96 $Y=1.425
c80 23 0 1.50331e-19 $X=1.96 $Y=1.425
r81 31 33 29.4556 $w=2.7e-07 $l=1.65e-07 $layer=POLY_cond $X=0.505 $Y=1.685
+ $X2=0.67 $Y2=1.685
r82 30 31 1.78519 $w=2.7e-07 $l=1e-08 $layer=POLY_cond $X=0.495 $Y=1.685
+ $X2=0.505 $Y2=1.685
r83 28 39 4.53993 $w=3.28e-07 $l=1.3e-07 $layer=LI1_cond $X=0.67 $Y=1.665
+ $X2=0.67 $Y2=1.535
r84 28 33 145.28 $w=1.7e-07 $l=1.7e-07 $layer=licon1_POLY $count=1 $X=0.67
+ $Y=1.685 $X2=0.67 $Y2=1.685
r85 24 37 46.2115 $w=3.3e-07 $l=1.65e-07 $layer=POLY_cond $X=1.96 $Y=1.425
+ $X2=1.96 $Y2=1.26
r86 23 26 5.07075 $w=2.48e-07 $l=1.1e-07 $layer=LI1_cond $X=1.92 $Y=1.425
+ $X2=1.92 $Y2=1.535
r87 23 24 145.28 $w=1.7e-07 $l=1.7e-07 $layer=licon1_POLY $count=1 $X=1.96
+ $Y=1.425 $X2=1.96 $Y2=1.425
r88 21 39 4.62375 $w=1.7e-07 $l=1.65e-07 $layer=LI1_cond $X=0.835 $Y=1.535
+ $X2=0.67 $Y2=1.535
r89 20 26 2.99516 $w=1.7e-07 $l=1.25e-07 $layer=LI1_cond $X=1.795 $Y=1.535
+ $X2=1.92 $Y2=1.535
r90 20 21 62.631 $w=1.68e-07 $l=9.6e-07 $layer=LI1_cond $X=1.795 $Y=1.535
+ $X2=0.835 $Y2=1.535
r91 17 37 348.681 $w=1.5e-07 $l=6.8e-07 $layer=POLY_cond $X=1.885 $Y=0.58
+ $X2=1.885 $Y2=1.26
r92 13 33 53.5556 $w=2.7e-07 $l=3.73497e-07 $layer=POLY_cond $X=0.97 $Y=1.85
+ $X2=0.67 $Y2=1.685
r93 13 19 123.064 $w=1.5e-07 $l=2.4e-07 $layer=POLY_cond $X=0.97 $Y=1.85
+ $X2=0.97 $Y2=2.09
r94 10 19 60.25 $w=1.8e-07 $l=1.55e-07 $layer=POLY_cond $X=0.955 $Y=2.245
+ $X2=0.955 $Y2=2.09
r95 10 12 126.927 $w=1.5e-07 $l=3.95e-07 $layer=POLY_cond $X=0.955 $Y=2.245
+ $X2=0.955 $Y2=2.64
r96 7 9 126.927 $w=1.5e-07 $l=3.95e-07 $layer=POLY_cond $X=0.505 $Y=2.245
+ $X2=0.505 $Y2=2.64
r97 3 30 16.5046 $w=1.5e-07 $l=1.65e-07 $layer=POLY_cond $X=0.495 $Y=1.52
+ $X2=0.495 $Y2=1.685
r98 3 5 482 $w=1.5e-07 $l=9.4e-07 $layer=POLY_cond $X=0.495 $Y=1.52 $X2=0.495
+ $Y2=0.58
r99 2 7 36.0588 $w=1.8e-07 $l=9e-08 $layer=POLY_cond $X=0.505 $Y=2.155 $X2=0.505
+ $Y2=2.245
r100 1 31 12.2893 $w=1.8e-07 $l=1.65e-07 $layer=POLY_cond $X=0.505 $Y=1.85
+ $X2=0.505 $Y2=1.685
r101 1 2 118.556 $w=1.8e-07 $l=3.05e-07 $layer=POLY_cond $X=0.505 $Y=1.85
+ $X2=0.505 $Y2=2.155
.ends

.subckt PM_SKY130_FD_SC_HS__SDFSBP_1%D 1 3 6 8 12
c34 1 0 2.35667e-19 $X=1.375 $Y=2.245
r35 11 12 145.28 $w=1.7e-07 $l=1.7e-07 $layer=licon1_POLY $count=1 $X=1.42
+ $Y=1.955 $X2=1.42 $Y2=1.955
r36 8 12 7.68295 $w=3.28e-07 $l=2.2e-07 $layer=LI1_cond $X=1.2 $Y=1.955 $X2=1.42
+ $Y2=1.955
r37 4 11 38.6342 $w=2.88e-07 $l=1.81659e-07 $layer=POLY_cond $X=1.455 $Y=1.79
+ $X2=1.42 $Y2=1.955
r38 4 6 620.447 $w=1.5e-07 $l=1.21e-06 $layer=POLY_cond $X=1.455 $Y=1.79
+ $X2=1.455 $Y2=0.58
r39 1 11 59.5544 $w=2.88e-07 $l=3.11689e-07 $layer=POLY_cond $X=1.375 $Y=2.245
+ $X2=1.42 $Y2=1.955
r40 1 3 126.927 $w=1.5e-07 $l=3.95e-07 $layer=POLY_cond $X=1.375 $Y=2.245
+ $X2=1.375 $Y2=2.64
.ends

.subckt PM_SKY130_FD_SC_HS__SDFSBP_1%SCD 1 3 4 6 7 8 9 10 11
c43 9 0 6.91441e-20 $X=2.64 $Y=1.295
c44 8 0 1.50331e-19 $X=2.597 $Y=1.918
c45 4 0 2.9454e-19 $X=2.425 $Y=2.245
r46 11 19 96.8533 $w=1.7e-07 $l=2.55e-07 $layer=licon1_POLY $count=1 $X=2.665
+ $Y=1.985 $X2=2.665 $Y2=1.985
r47 10 11 16.9004 $w=2.08e-07 $l=3.2e-07 $layer=LI1_cond $X=2.66 $Y=1.665
+ $X2=2.66 $Y2=1.985
r48 9 10 19.5411 $w=2.08e-07 $l=3.7e-07 $layer=LI1_cond $X=2.66 $Y=1.295
+ $X2=2.66 $Y2=1.665
r49 9 16 96.8533 $w=1.7e-07 $l=2.55e-07 $layer=licon1_POLY $count=1 $X=2.665
+ $Y=1.305 $X2=2.665 $Y2=1.305
r50 8 19 8.81262 $w=4.65e-07 $l=7.04131e-08 $layer=POLY_cond $X=2.597 $Y=1.918
+ $X2=2.59 $Y2=1.985
r51 7 16 10.4119 $w=4.65e-07 $l=1.10535e-07 $layer=POLY_cond $X=2.597 $Y=1.372
+ $X2=2.515 $Y2=1.305
r52 7 8 65.3032 $w=4.65e-07 $l=5.46e-07 $layer=POLY_cond $X=2.597 $Y=1.372
+ $X2=2.597 $Y2=1.918
r53 4 19 51.3137 $w=3.77e-07 $l=3.32415e-07 $layer=POLY_cond $X=2.425 $Y=2.245
+ $X2=2.59 $Y2=1.985
r54 4 6 126.927 $w=1.5e-07 $l=3.95e-07 $layer=POLY_cond $X=2.425 $Y=2.245
+ $X2=2.425 $Y2=2.64
r55 1 16 77.4558 $w=3.42e-07 $l=5.46992e-07 $layer=POLY_cond $X=2.275 $Y=0.865
+ $X2=2.515 $Y2=1.305
r56 1 3 91.58 $w=1.5e-07 $l=2.85e-07 $layer=POLY_cond $X=2.275 $Y=0.865
+ $X2=2.275 $Y2=0.58
.ends

.subckt PM_SKY130_FD_SC_HS__SDFSBP_1%CLK 1 3 4 6 7
c32 4 0 6.91441e-20 $X=3.515 $Y=1.765
c33 1 0 9.27061e-20 $X=3.33 $Y=1.22
r34 10 11 145.28 $w=1.7e-07 $l=1.7e-07 $layer=licon1_POLY $count=1 $X=3.38
+ $Y=1.385 $X2=3.38 $Y2=1.385
r35 7 11 6.85236 $w=3.68e-07 $l=2.2e-07 $layer=LI1_cond $X=3.6 $Y=1.365 $X2=3.38
+ $Y2=1.365
r36 4 10 76.492 $w=2.75e-07 $l=4.29302e-07 $layer=POLY_cond $X=3.515 $Y=1.765
+ $X2=3.41 $Y2=1.385
r37 4 6 204.047 $w=1.5e-07 $l=6.35e-07 $layer=POLY_cond $X=3.515 $Y=1.765
+ $X2=3.515 $Y2=2.4
r38 1 10 38.8084 $w=2.75e-07 $l=2.0106e-07 $layer=POLY_cond $X=3.33 $Y=1.22
+ $X2=3.41 $Y2=1.385
r39 1 3 154.24 $w=1.5e-07 $l=4.8e-07 $layer=POLY_cond $X=3.33 $Y=1.22 $X2=3.33
+ $Y2=0.74
.ends

.subckt PM_SKY130_FD_SC_HS__SDFSBP_1%A_781_74# 1 2 7 9 14 18 22 25 29 31 32 33
+ 34 35 37 42 43 44 47 48 49 51 52 53 55 56 59 62 63 69 74
c210 74 0 1.55309e-19 $X=8.825 $Y=1.795
c211 55 0 3.2241e-19 $X=8.745 $Y=1.95
c212 51 0 1.38387e-19 $X=7.36 $Y=2.905
c213 32 0 9.27061e-20 $X=4.21 $Y=0.34
r214 68 69 30.474 $w=3.3e-07 $l=7.5e-08 $layer=POLY_cond $X=5.5 $Y=1.855
+ $X2=5.425 $Y2=1.855
r215 63 74 66.3205 $w=3.3e-07 $l=2.8e-07 $layer=POLY_cond $X=8.825 $Y=1.515
+ $X2=8.825 $Y2=1.795
r216 63 73 46.2115 $w=3.3e-07 $l=1.65e-07 $layer=POLY_cond $X=8.825 $Y=1.515
+ $X2=8.825 $Y2=1.35
r217 62 65 8.46218 $w=3.28e-07 $l=1.65e-07 $layer=LI1_cond $X=8.825 $Y=1.515
+ $X2=8.825 $Y2=1.68
r218 62 63 145.28 $w=1.7e-07 $l=1.7e-07 $layer=licon1_POLY $count=1 $X=8.825
+ $Y=1.515 $X2=8.825 $Y2=1.515
r219 59 68 25.3549 $w=3.3e-07 $l=1.45e-07 $layer=POLY_cond $X=5.645 $Y=1.855
+ $X2=5.5 $Y2=1.855
r220 58 60 16.8553 $w=2.28e-07 $l=3.15e-07 $layer=LI1_cond $X=5.675 $Y=1.855
+ $X2=5.675 $Y2=2.17
r221 58 59 145.28 $w=1.7e-07 $l=1.7e-07 $layer=licon1_POLY $count=1 $X=5.645
+ $Y=1.855 $X2=5.645 $Y2=1.855
r222 55 65 17.615 $w=1.68e-07 $l=2.7e-07 $layer=LI1_cond $X=8.745 $Y=1.95
+ $X2=8.745 $Y2=1.68
r223 52 55 6.81649 $w=1.7e-07 $l=1.20208e-07 $layer=LI1_cond $X=8.66 $Y=2.035
+ $X2=8.745 $Y2=1.95
r224 52 53 79.2674 $w=1.68e-07 $l=1.215e-06 $layer=LI1_cond $X=8.66 $Y=2.035
+ $X2=7.445 $Y2=2.035
r225 50 53 6.81649 $w=1.7e-07 $l=1.20208e-07 $layer=LI1_cond $X=7.36 $Y=2.12
+ $X2=7.445 $Y2=2.035
r226 50 51 51.2139 $w=1.68e-07 $l=7.85e-07 $layer=LI1_cond $X=7.36 $Y=2.12
+ $X2=7.36 $Y2=2.905
r227 48 51 6.81649 $w=1.7e-07 $l=1.20208e-07 $layer=LI1_cond $X=7.275 $Y=2.99
+ $X2=7.36 $Y2=2.905
r228 48 49 33.2727 $w=1.68e-07 $l=5.1e-07 $layer=LI1_cond $X=7.275 $Y=2.99
+ $X2=6.765 $Y2=2.99
r229 47 49 6.81649 $w=1.7e-07 $l=1.20208e-07 $layer=LI1_cond $X=6.68 $Y=2.905
+ $X2=6.765 $Y2=2.99
r230 46 47 42.4064 $w=1.68e-07 $l=6.5e-07 $layer=LI1_cond $X=6.68 $Y=2.255
+ $X2=6.68 $Y2=2.905
r231 45 60 2.45823 $w=1.7e-07 $l=1.35e-07 $layer=LI1_cond $X=5.81 $Y=2.17
+ $X2=5.675 $Y2=2.17
r232 44 46 6.81649 $w=1.7e-07 $l=1.20208e-07 $layer=LI1_cond $X=6.595 $Y=2.17
+ $X2=6.68 $Y2=2.255
r233 44 45 51.2139 $w=1.68e-07 $l=7.85e-07 $layer=LI1_cond $X=6.595 $Y=2.17
+ $X2=5.81 $Y2=2.17
r234 42 60 5.36411 $w=2.28e-07 $l=1.07121e-07 $layer=LI1_cond $X=5.725 $Y=2.255
+ $X2=5.675 $Y2=2.17
r235 42 43 42.4064 $w=1.68e-07 $l=6.5e-07 $layer=LI1_cond $X=5.725 $Y=2.255
+ $X2=5.725 $Y2=2.905
r236 40 56 61.6524 $w=1.68e-07 $l=9.45e-07 $layer=LI1_cond $X=4.945 $Y=0.425
+ $X2=4.945 $Y2=1.37
r237 38 67 37.5797 $w=2.95e-07 $l=2.3e-07 $layer=POLY_cond $X=4.925 $Y=1.535
+ $X2=4.925 $Y2=1.765
r238 37 38 72.64 $w=1.7e-07 $l=3.4e-07 $layer=licon1_POLY $count=2 $X=4.925
+ $Y=1.535 $X2=4.925 $Y2=1.535
r239 35 56 7.33542 $w=2.68e-07 $l=1.35e-07 $layer=LI1_cond $X=4.895 $Y=1.505
+ $X2=4.895 $Y2=1.37
r240 35 37 1.28049 $w=2.68e-07 $l=3e-08 $layer=LI1_cond $X=4.895 $Y=1.505
+ $X2=4.895 $Y2=1.535
r241 33 43 6.81649 $w=1.7e-07 $l=1.20208e-07 $layer=LI1_cond $X=5.64 $Y=2.99
+ $X2=5.725 $Y2=2.905
r242 33 34 83.8342 $w=1.68e-07 $l=1.285e-06 $layer=LI1_cond $X=5.64 $Y=2.99
+ $X2=4.355 $Y2=2.99
r243 31 40 6.81649 $w=1.7e-07 $l=1.20208e-07 $layer=LI1_cond $X=4.86 $Y=0.34
+ $X2=4.945 $Y2=0.425
r244 31 32 42.4064 $w=1.68e-07 $l=6.5e-07 $layer=LI1_cond $X=4.86 $Y=0.34
+ $X2=4.21 $Y2=0.34
r245 27 34 7.14316 $w=1.7e-07 $l=1.62019e-07 $layer=LI1_cond $X=4.23 $Y=2.905
+ $X2=4.355 $Y2=2.99
r246 27 29 6.45368 $w=2.48e-07 $l=1.4e-07 $layer=LI1_cond $X=4.23 $Y=2.905
+ $X2=4.23 $Y2=2.765
r247 23 32 7.76618 $w=1.7e-07 $l=2.03101e-07 $layer=LI1_cond $X=4.045 $Y=0.425
+ $X2=4.21 $Y2=0.34
r248 23 25 2.7938 $w=3.28e-07 $l=8e-08 $layer=LI1_cond $X=4.045 $Y=0.425
+ $X2=4.045 $Y2=0.505
r249 22 74 91.58 $w=1.5e-07 $l=2.85e-07 $layer=POLY_cond $X=8.9 $Y=2.08 $X2=8.9
+ $Y2=1.795
r250 18 73 338.426 $w=1.5e-07 $l=6.6e-07 $layer=POLY_cond $X=8.735 $Y=0.69
+ $X2=8.735 $Y2=1.35
r251 12 68 21.2229 $w=1.5e-07 $l=1.65e-07 $layer=POLY_cond $X=5.5 $Y=1.69
+ $X2=5.5 $Y2=1.855
r252 12 14 569.17 $w=1.5e-07 $l=1.11e-06 $layer=POLY_cond $X=5.5 $Y=1.69 $X2=5.5
+ $Y2=0.58
r253 11 67 18.5736 $w=1.5e-07 $l=1.65e-07 $layer=POLY_cond $X=5.09 $Y=1.765
+ $X2=4.925 $Y2=1.765
r254 11 69 171.777 $w=1.5e-07 $l=3.35e-07 $layer=POLY_cond $X=5.09 $Y=1.765
+ $X2=5.425 $Y2=1.765
r255 7 67 89.2288 $w=2.95e-07 $l=5.04108e-07 $layer=POLY_cond $X=4.985 $Y=2.24
+ $X2=4.925 $Y2=1.765
r256 7 9 91.58 $w=1.5e-07 $l=2.85e-07 $layer=POLY_cond $X=4.985 $Y=2.24
+ $X2=4.985 $Y2=2.525
r257 2 29 600 $w=1.7e-07 $l=9.97184e-07 $layer=licon1_PDIFF $count=1 $X=4.04
+ $Y=1.84 $X2=4.19 $Y2=2.765
r258 1 25 91 $w=1.7e-07 $l=1.96214e-07 $layer=licon1_NDIFF $count=2 $X=3.905
+ $Y=0.37 $X2=4.045 $Y2=0.505
.ends

.subckt PM_SKY130_FD_SC_HS__SDFSBP_1%A_1163_48# 1 2 7 9 10 11 12 14 16 17 19 26
+ 33
c75 12 0 6.11079e-20 $X=6.11 $Y=2.24
r76 35 37 41.0924 $w=3.3e-07 $l=2.35e-07 $layer=POLY_cond $X=5.89 $Y=1.065
+ $X2=6.125 $Y2=1.065
r77 33 37 34.0979 $w=3.3e-07 $l=1.95e-07 $layer=POLY_cond $X=6.32 $Y=1.065
+ $X2=6.125 $Y2=1.065
r78 32 33 72.64 $w=1.7e-07 $l=3.4e-07 $layer=licon1_POLY $count=2 $X=6.32
+ $Y=1.065 $X2=6.32 $Y2=1.065
r79 24 26 39.1444 $w=1.68e-07 $l=6e-07 $layer=LI1_cond $X=7.02 $Y=1.915 $X2=7.02
+ $Y2=2.515
r80 21 22 145.28 $w=1.7e-07 $l=1.7e-07 $layer=licon1_POLY $count=1 $X=6.215
+ $Y=1.8 $X2=6.215 $Y2=1.8
r81 19 24 6.9898 $w=2.25e-07 $l=1.49579e-07 $layer=LI1_cond $X=6.935 $Y=1.802
+ $X2=7.02 $Y2=1.915
r82 19 21 36.8782 $w=2.23e-07 $l=7.2e-07 $layer=LI1_cond $X=6.935 $Y=1.802
+ $X2=6.215 $Y2=1.802
r83 17 32 3.99273 $w=3.3e-07 $l=1.33492e-07 $layer=LI1_cond $X=6.263 $Y=0.957
+ $X2=6.32 $Y2=1.065
r84 17 29 15.4164 $w=3.3e-07 $l=6.79219e-07 $layer=LI1_cond $X=6.263 $Y=0.957
+ $X2=6.765 $Y2=0.54
r85 16 22 38.7084 $w=3.43e-07 $l=1.98997e-07 $layer=POLY_cond $X=6.125 $Y=1.635
+ $X2=6.2 $Y2=1.8
r86 15 37 21.2229 $w=1.5e-07 $l=1.65e-07 $layer=POLY_cond $X=6.125 $Y=1.23
+ $X2=6.125 $Y2=1.065
r87 15 16 207.67 $w=1.5e-07 $l=4.05e-07 $layer=POLY_cond $X=6.125 $Y=1.23
+ $X2=6.125 $Y2=1.635
r88 12 14 91.58 $w=1.5e-07 $l=2.85e-07 $layer=POLY_cond $X=6.11 $Y=2.24 $X2=6.11
+ $Y2=2.525
r89 11 12 36.0588 $w=1.8e-07 $l=9e-08 $layer=POLY_cond $X=6.11 $Y=2.15 $X2=6.11
+ $Y2=2.24
r90 10 22 34.0194 $w=3.43e-07 $l=2.05122e-07 $layer=POLY_cond $X=6.11 $Y=1.965
+ $X2=6.2 $Y2=1.8
r91 10 11 71.9113 $w=1.8e-07 $l=1.85e-07 $layer=POLY_cond $X=6.11 $Y=1.965
+ $X2=6.11 $Y2=2.15
r92 7 35 21.2229 $w=1.5e-07 $l=1.65e-07 $layer=POLY_cond $X=5.89 $Y=0.9 $X2=5.89
+ $Y2=1.065
r93 7 9 102.827 $w=1.5e-07 $l=3.2e-07 $layer=POLY_cond $X=5.89 $Y=0.9 $X2=5.89
+ $Y2=0.58
r94 2 26 600 $w=1.7e-07 $l=2.64575e-07 $layer=licon1_PDIFF $count=1 $X=6.87
+ $Y=2.315 $X2=7.02 $Y2=2.515
r95 1 29 182 $w=1.7e-07 $l=2.31409e-07 $layer=licon1_NDIFF $count=1 $X=6.62
+ $Y=0.37 $X2=6.765 $Y2=0.54
.ends

.subckt PM_SKY130_FD_SC_HS__SDFSBP_1%A_995_74# 1 2 7 8 9 11 14 16 18 19 21 24 27
+ 28 30 34 35 38 40 43
c137 27 0 6.11079e-20 $X=5.285 $Y=2.37
c138 8 0 1.19047e-19 $X=6.795 $Y=2.15
r139 43 45 3.42456 $w=2.85e-07 $l=8e-08 $layer=LI1_cond $X=6.917 $Y=1.355
+ $X2=6.917 $Y2=1.435
r140 43 44 145.28 $w=1.7e-07 $l=1.7e-07 $layer=licon1_POLY $count=1 $X=6.89
+ $Y=1.355 $X2=6.89 $Y2=1.355
r141 35 49 42.2056 $w=3.94e-07 $l=3.45e-07 $layer=POLY_cond $X=8 $Y=1.39
+ $X2=8.345 $Y2=1.39
r142 35 47 9.17513 $w=3.94e-07 $l=7.5e-08 $layer=POLY_cond $X=8 $Y=1.39
+ $X2=7.925 $Y2=1.39
r143 34 35 145.28 $w=1.7e-07 $l=1.7e-07 $layer=licon1_POLY $count=1 $X=8
+ $Y=1.285 $X2=8 $Y2=1.285
r144 32 34 7.33373 $w=3.28e-07 $l=2.1e-07 $layer=LI1_cond $X=8 $Y=1.075 $X2=8
+ $Y2=1.285
r145 31 43 15.6246 $w=2.85e-07 $l=4.51298e-07 $layer=LI1_cond $X=7.11 $Y=0.99
+ $X2=6.917 $Y2=1.355
r146 30 32 7.76618 $w=1.7e-07 $l=2.03101e-07 $layer=LI1_cond $X=7.835 $Y=0.99
+ $X2=8 $Y2=1.075
r147 30 31 47.2995 $w=1.68e-07 $l=7.25e-07 $layer=LI1_cond $X=7.835 $Y=0.99
+ $X2=7.11 $Y2=0.99
r148 29 40 2.11342 $w=1.7e-07 $l=1.25e-07 $layer=LI1_cond $X=5.45 $Y=1.435
+ $X2=5.325 $Y2=1.435
r149 28 45 3.76007 $w=1.7e-07 $l=1.92e-07 $layer=LI1_cond $X=6.725 $Y=1.435
+ $X2=6.917 $Y2=1.435
r150 28 29 83.1818 $w=1.68e-07 $l=1.275e-06 $layer=LI1_cond $X=6.725 $Y=1.435
+ $X2=5.45 $Y2=1.435
r151 27 38 8.98601 $w=3.28e-07 $l=1.8e-07 $layer=LI1_cond $X=5.285 $Y=2.37
+ $X2=5.285 $Y2=2.55
r152 26 40 4.3182 $w=2.1e-07 $l=1.03078e-07 $layer=LI1_cond $X=5.285 $Y=1.52
+ $X2=5.325 $Y2=1.435
r153 26 27 55.4545 $w=1.68e-07 $l=8.5e-07 $layer=LI1_cond $X=5.285 $Y=1.52
+ $X2=5.285 $Y2=2.37
r154 22 40 4.3182 $w=2.1e-07 $l=8.5e-08 $layer=LI1_cond $X=5.325 $Y=1.35
+ $X2=5.325 $Y2=1.435
r155 22 24 35.4952 $w=2.48e-07 $l=7.7e-07 $layer=LI1_cond $X=5.325 $Y=1.35
+ $X2=5.325 $Y2=0.58
r156 19 49 25.4929 $w=1.5e-07 $l=2.7e-07 $layer=POLY_cond $X=8.345 $Y=1.12
+ $X2=8.345 $Y2=1.39
r157 19 21 138.173 $w=1.5e-07 $l=4.3e-07 $layer=POLY_cond $X=8.345 $Y=1.12
+ $X2=8.345 $Y2=0.69
r158 16 47 25.4929 $w=1.5e-07 $l=2.7e-07 $layer=POLY_cond $X=7.925 $Y=1.66
+ $X2=7.925 $Y2=1.39
r159 16 18 184.767 $w=1.5e-07 $l=5.75e-07 $layer=POLY_cond $X=7.925 $Y=1.66
+ $X2=7.925 $Y2=2.235
r160 12 44 38.5662 $w=2.97e-07 $l=2.09105e-07 $layer=POLY_cond $X=6.98 $Y=1.19
+ $X2=6.88 $Y2=1.355
r161 12 14 312.787 $w=1.5e-07 $l=6.1e-07 $layer=POLY_cond $X=6.98 $Y=1.19
+ $X2=6.98 $Y2=0.58
r162 9 11 91.58 $w=1.5e-07 $l=2.85e-07 $layer=POLY_cond $X=6.795 $Y=2.24
+ $X2=6.795 $Y2=2.525
r163 8 9 36.0588 $w=1.8e-07 $l=9e-08 $layer=POLY_cond $X=6.795 $Y=2.15 $X2=6.795
+ $Y2=2.24
r164 7 44 48.8089 $w=2.97e-07 $l=2.94449e-07 $layer=POLY_cond $X=6.795 $Y=1.61
+ $X2=6.88 $Y2=1.355
r165 7 8 209.903 $w=1.8e-07 $l=5.4e-07 $layer=POLY_cond $X=6.795 $Y=1.61
+ $X2=6.795 $Y2=2.15
r166 2 38 600 $w=1.7e-07 $l=3.28786e-07 $layer=licon1_PDIFF $count=1 $X=5.06
+ $Y=2.315 $X2=5.285 $Y2=2.55
r167 1 24 182 $w=1.7e-07 $l=4.01497e-07 $layer=licon1_NDIFF $count=1 $X=4.975
+ $Y=0.37 $X2=5.285 $Y2=0.58
.ends

.subckt PM_SKY130_FD_SC_HS__SDFSBP_1%SET_B 3 6 7 9 10 12 13 14 20 21 23 24 25 27
+ 28 31 33 34 39 42 43 47
c156 43 0 1.19047e-19 $X=7.46 $Y=1.41
c157 28 0 1.8354e-19 $X=10.75 $Y=1.42
c158 14 0 7.13225e-20 $X=10.31 $Y=0.94
c159 13 0 1.94471e-19 $X=10.55 $Y=0.94
c160 7 0 2.22931e-19 $X=7.385 $Y=2.24
r161 42 45 40.6903 $w=3.3e-07 $l=1.65e-07 $layer=POLY_cond $X=7.46 $Y=1.41
+ $X2=7.46 $Y2=1.575
r162 42 44 46.2115 $w=3.3e-07 $l=1.65e-07 $layer=POLY_cond $X=7.46 $Y=1.41
+ $X2=7.46 $Y2=1.245
r163 42 43 145.28 $w=1.7e-07 $l=1.7e-07 $layer=licon1_POLY $count=1 $X=7.46
+ $Y=1.41 $X2=7.46 $Y2=1.41
r164 39 53 9.3 $w=1.7e-07 $l=1.7e-07 $layer=mcon $count=1 $X=9.84 $Y=1.665
+ $X2=9.84 $Y2=1.665
r165 37 43 8.90524 $w=3.28e-07 $l=2.55e-07 $layer=LI1_cond $X=7.46 $Y=1.665
+ $X2=7.46 $Y2=1.41
r166 36 37 9.3 $w=1.7e-07 $l=1.7e-07 $layer=mcon $count=1 $X=7.44 $Y=1.665
+ $X2=7.44 $Y2=1.665
r167 34 36 0.115467 $w=2.3e-07 $l=1.45e-07 $layer=MET1_cond $X=7.585 $Y=1.665
+ $X2=7.44 $Y2=1.665
r168 33 39 0.115467 $w=2.3e-07 $l=1.45e-07 $layer=MET1_cond $X=9.695 $Y=1.665
+ $X2=9.84 $Y2=1.665
r169 33 34 2.61138 $w=1.4e-07 $l=2.11e-06 $layer=MET1_cond $X=9.695 $Y=1.665
+ $X2=7.585 $Y2=1.665
r170 31 53 37.3291 $w=2.28e-07 $l=7.45e-07 $layer=LI1_cond $X=10.585 $Y=1.665
+ $X2=9.84 $Y2=1.665
r171 30 31 2.85155 $w=2.3e-07 $l=1.65e-07 $layer=LI1_cond $X=10.75 $Y=1.665
+ $X2=10.585 $Y2=1.665
r172 28 47 45.6753 $w=4e-07 $l=1.65e-07 $layer=POLY_cond $X=10.75 $Y=1.42
+ $X2=10.75 $Y2=1.255
r173 27 30 8.55602 $w=3.28e-07 $l=2.45e-07 $layer=LI1_cond $X=10.75 $Y=1.42
+ $X2=10.75 $Y2=1.665
r174 27 28 72.64 $w=1.7e-07 $l=3.4e-07 $layer=licon1_POLY $count=2 $X=10.75
+ $Y=1.42 $X2=10.75 $Y2=1.42
r175 24 25 37.8919 $w=4e-07 $l=1.5e-07 $layer=POLY_cond $X=10.765 $Y=1.775
+ $X2=10.765 $Y2=1.925
r176 21 23 91.58 $w=1.5e-07 $l=2.85e-07 $layer=POLY_cond $X=10.89 $Y=2.465
+ $X2=10.89 $Y2=2.75
r177 20 21 36.0588 $w=1.8e-07 $l=9e-08 $layer=POLY_cond $X=10.89 $Y=2.375
+ $X2=10.89 $Y2=2.465
r178 20 25 174.919 $w=1.8e-07 $l=4.5e-07 $layer=POLY_cond $X=10.89 $Y=2.375
+ $X2=10.89 $Y2=1.925
r179 17 28 4.86635 $w=4e-07 $l=3.5e-08 $layer=POLY_cond $X=10.75 $Y=1.455
+ $X2=10.75 $Y2=1.42
r180 17 24 44.4923 $w=4e-07 $l=3.2e-07 $layer=POLY_cond $X=10.75 $Y=1.455
+ $X2=10.75 $Y2=1.775
r181 15 47 123.064 $w=1.5e-07 $l=2.4e-07 $layer=POLY_cond $X=10.625 $Y=1.015
+ $X2=10.625 $Y2=1.255
r182 13 15 26.9307 $w=1.5e-07 $l=1.06066e-07 $layer=POLY_cond $X=10.55 $Y=0.94
+ $X2=10.625 $Y2=1.015
r183 13 14 123.064 $w=1.5e-07 $l=2.4e-07 $layer=POLY_cond $X=10.55 $Y=0.94
+ $X2=10.31 $Y2=0.94
r184 10 14 26.9307 $w=1.5e-07 $l=1.06066e-07 $layer=POLY_cond $X=10.235 $Y=0.865
+ $X2=10.31 $Y2=0.94
r185 10 12 91.58 $w=1.5e-07 $l=2.85e-07 $layer=POLY_cond $X=10.235 $Y=0.865
+ $X2=10.235 $Y2=0.58
r186 7 9 91.58 $w=1.5e-07 $l=2.85e-07 $layer=POLY_cond $X=7.385 $Y=2.24
+ $X2=7.385 $Y2=2.525
r187 6 7 36.0588 $w=1.8e-07 $l=9e-08 $layer=POLY_cond $X=7.385 $Y=2.15 $X2=7.385
+ $Y2=2.24
r188 6 45 223.508 $w=1.8e-07 $l=5.75e-07 $layer=POLY_cond $X=7.385 $Y=2.15
+ $X2=7.385 $Y2=1.575
r189 3 44 340.989 $w=1.5e-07 $l=6.65e-07 $layer=POLY_cond $X=7.37 $Y=0.58
+ $X2=7.37 $Y2=1.245
.ends

.subckt PM_SKY130_FD_SC_HS__SDFSBP_1%A_594_74# 1 2 7 9 10 12 13 16 17 19 20 23
+ 25 27 28 32 37 38 41 45 47 51 54 56 57 61 64 66 67
c180 57 0 2.88662e-20 $X=3.885 $Y=1.905
c181 45 0 1.51361e-19 $X=9.44 $Y=1.72
c182 37 0 1.7105e-19 $X=9.44 $Y=2.37
c183 16 0 1.84863e-19 $X=4.475 $Y=3.075
r184 66 67 8.46218 $w=3.28e-07 $l=1.65e-07 $layer=LI1_cond $X=3.29 $Y=1.985
+ $X2=3.455 $Y2=1.985
r185 61 62 145.28 $w=1.7e-07 $l=1.7e-07 $layer=licon1_POLY $count=1 $X=4.05
+ $Y=1.385 $X2=4.05 $Y2=1.385
r186 59 61 15.1913 $w=3.28e-07 $l=4.35e-07 $layer=LI1_cond $X=4.05 $Y=1.82
+ $X2=4.05 $Y2=1.385
r187 57 59 7.76618 $w=1.7e-07 $l=2.03101e-07 $layer=LI1_cond $X=3.885 $Y=1.905
+ $X2=4.05 $Y2=1.82
r188 57 67 28.0535 $w=1.68e-07 $l=4.3e-07 $layer=LI1_cond $X=3.885 $Y=1.905
+ $X2=3.455 $Y2=1.905
r189 56 66 6.46067 $w=3.28e-07 $l=1.85e-07 $layer=LI1_cond $X=3.105 $Y=1.985
+ $X2=3.29 $Y2=1.985
r190 54 56 7.76618 $w=3.3e-07 $l=2.03101e-07 $layer=LI1_cond $X=3.02 $Y=1.82
+ $X2=3.105 $Y2=1.985
r191 54 64 52.8449 $w=1.68e-07 $l=8.1e-07 $layer=LI1_cond $X=3.02 $Y=1.82
+ $X2=3.02 $Y2=1.01
r192 49 64 7.21712 $w=2.63e-07 $l=1.32e-07 $layer=LI1_cond $X=3.067 $Y=0.878
+ $X2=3.067 $Y2=1.01
r193 49 51 16.2212 $w=2.63e-07 $l=3.73e-07 $layer=LI1_cond $X=3.067 $Y=0.878
+ $X2=3.067 $Y2=0.505
r194 43 45 69.2234 $w=1.5e-07 $l=1.35e-07 $layer=POLY_cond $X=9.305 $Y=1.72
+ $X2=9.44 $Y2=1.72
r195 35 47 81.8353 $w=1.8e-07 $l=2.05e-07 $layer=POLY_cond $X=9.44 $Y=2.945
+ $X2=9.44 $Y2=3.15
r196 35 37 294.84 $w=1.5e-07 $l=5.75e-07 $layer=POLY_cond $X=9.44 $Y=2.945
+ $X2=9.44 $Y2=2.37
r197 34 45 2.83073 $w=1.5e-07 $l=7.5e-08 $layer=POLY_cond $X=9.44 $Y=1.795
+ $X2=9.44 $Y2=1.72
r198 34 37 294.84 $w=1.5e-07 $l=5.75e-07 $layer=POLY_cond $X=9.44 $Y=1.795
+ $X2=9.44 $Y2=2.37
r199 30 43 2.83073 $w=1.5e-07 $l=7.5e-08 $layer=POLY_cond $X=9.305 $Y=1.645
+ $X2=9.305 $Y2=1.72
r200 30 32 546.096 $w=1.5e-07 $l=1.065e-06 $layer=POLY_cond $X=9.305 $Y=1.645
+ $X2=9.305 $Y2=0.58
r201 29 41 7.1379 $w=1.5e-07 $l=9e-08 $layer=POLY_cond $X=5.68 $Y=3.15 $X2=5.59
+ $Y2=3.15
r202 28 47 7.1379 $w=1.5e-07 $l=9e-08 $layer=POLY_cond $X=9.35 $Y=3.15 $X2=9.44
+ $Y2=3.15
r203 28 29 1881.85 $w=1.5e-07 $l=3.67e-06 $layer=POLY_cond $X=9.35 $Y=3.15
+ $X2=5.68 $Y2=3.15
r204 25 41 105.158 $w=1.8e-07 $l=2.65e-07 $layer=POLY_cond $X=5.59 $Y=2.885
+ $X2=5.59 $Y2=3.15
r205 25 27 91.58 $w=1.5e-07 $l=2.85e-07 $layer=POLY_cond $X=5.59 $Y=2.885
+ $X2=5.59 $Y2=2.6
r206 21 23 205.106 $w=1.5e-07 $l=4e-07 $layer=POLY_cond $X=4.9 $Y=0.98 $X2=4.9
+ $Y2=0.58
r207 19 41 7.1379 $w=1.5e-07 $l=9e-08 $layer=POLY_cond $X=5.5 $Y=3.15 $X2=5.59
+ $Y2=3.15
r208 19 20 487.128 $w=1.5e-07 $l=9.5e-07 $layer=POLY_cond $X=5.5 $Y=3.15
+ $X2=4.55 $Y2=3.15
r209 18 38 2.83073 $w=1.5e-07 $l=7.5e-08 $layer=POLY_cond $X=4.55 $Y=1.055
+ $X2=4.475 $Y2=1.055
r210 17 21 26.9307 $w=1.5e-07 $l=1.06066e-07 $layer=POLY_cond $X=4.825 $Y=1.055
+ $X2=4.9 $Y2=0.98
r211 17 18 141.011 $w=1.5e-07 $l=2.75e-07 $layer=POLY_cond $X=4.825 $Y=1.055
+ $X2=4.55 $Y2=1.055
r212 16 20 26.9307 $w=1.5e-07 $l=1.06066e-07 $layer=POLY_cond $X=4.475 $Y=3.075
+ $X2=4.55 $Y2=3.15
r213 15 16 781.968 $w=1.5e-07 $l=1.525e-06 $layer=POLY_cond $X=4.475 $Y=1.55
+ $X2=4.475 $Y2=3.075
r214 13 15 84.6064 $w=1.5e-07 $l=1.65e-07 $layer=POLY_cond $X=4.475 $Y=1.385
+ $X2=4.475 $Y2=1.55
r215 13 38 169.213 $w=1.5e-07 $l=3.3e-07 $layer=POLY_cond $X=4.475 $Y=1.385
+ $X2=4.475 $Y2=1.055
r216 13 62 60.3271 $w=3.3e-07 $l=3.45e-07 $layer=POLY_cond $X=4.4 $Y=1.385
+ $X2=4.055 $Y2=1.385
r217 10 62 90.2669 $w=2.13e-07 $l=4.08901e-07 $layer=POLY_cond $X=3.965 $Y=1.765
+ $X2=3.905 $Y2=1.385
r218 10 12 204.047 $w=1.5e-07 $l=6.35e-07 $layer=POLY_cond $X=3.965 $Y=1.765
+ $X2=3.965 $Y2=2.4
r219 7 62 41.6143 $w=2.13e-07 $l=1.98997e-07 $layer=POLY_cond $X=3.83 $Y=1.22
+ $X2=3.905 $Y2=1.385
r220 7 9 154.24 $w=1.5e-07 $l=4.8e-07 $layer=POLY_cond $X=3.83 $Y=1.22 $X2=3.83
+ $Y2=0.74
r221 2 66 600 $w=1.7e-07 $l=2.03286e-07 $layer=licon1_PDIFF $count=1 $X=3.15
+ $Y=1.84 $X2=3.29 $Y2=1.985
r222 1 51 91 $w=1.7e-07 $l=2.01494e-07 $layer=licon1_NDIFF $count=2 $X=2.97
+ $Y=0.37 $X2=3.115 $Y2=0.505
.ends

.subckt PM_SKY130_FD_SC_HS__SDFSBP_1%A_1924_48# 1 2 9 11 12 13 14 16 17 18 21 22
+ 24 28 31 32 33 36 38 39 41 42 46 48
c136 42 0 7.13225e-20 $X=9.785 $Y=0.985
c137 31 0 1.8354e-19 $X=11.31 $Y=1.3
c138 28 0 1.94471e-19 $X=11.23 $Y=0.58
r139 45 46 145.28 $w=1.7e-07 $l=1.7e-07 $layer=licon1_POLY $count=1 $X=9.785
+ $Y=1.065 $X2=9.785 $Y2=1.065
r140 42 45 2.7938 $w=3.28e-07 $l=8e-08 $layer=LI1_cond $X=9.785 $Y=0.985
+ $X2=9.785 $Y2=1.065
r141 40 41 46.3209 $w=1.68e-07 $l=7.1e-07 $layer=LI1_cond $X=12.15 $Y=1.47
+ $X2=12.15 $Y2=2.18
r142 38 41 6.81649 $w=1.7e-07 $l=1.20208e-07 $layer=LI1_cond $X=12.065 $Y=2.265
+ $X2=12.15 $Y2=2.18
r143 38 39 20.5508 $w=1.68e-07 $l=3.15e-07 $layer=LI1_cond $X=12.065 $Y=2.265
+ $X2=11.75 $Y2=2.265
r144 34 39 7.14316 $w=1.7e-07 $l=1.62019e-07 $layer=LI1_cond $X=11.625 $Y=2.35
+ $X2=11.75 $Y2=2.265
r145 34 36 18.4391 $w=2.48e-07 $l=4e-07 $layer=LI1_cond $X=11.625 $Y=2.35
+ $X2=11.625 $Y2=2.75
r146 32 40 6.81649 $w=1.7e-07 $l=1.20208e-07 $layer=LI1_cond $X=12.065 $Y=1.385
+ $X2=12.15 $Y2=1.47
r147 32 33 43.7112 $w=1.68e-07 $l=6.7e-07 $layer=LI1_cond $X=12.065 $Y=1.385
+ $X2=11.395 $Y2=1.385
r148 31 33 6.81649 $w=1.7e-07 $l=1.20208e-07 $layer=LI1_cond $X=11.31 $Y=1.3
+ $X2=11.395 $Y2=1.385
r149 30 48 3.70735 $w=2.5e-07 $l=1.18427e-07 $layer=LI1_cond $X=11.31 $Y=1.07
+ $X2=11.23 $Y2=0.985
r150 30 31 15.0053 $w=1.68e-07 $l=2.3e-07 $layer=LI1_cond $X=11.31 $Y=1.07
+ $X2=11.31 $Y2=1.3
r151 26 48 3.70735 $w=2.5e-07 $l=8.5e-08 $layer=LI1_cond $X=11.23 $Y=0.9
+ $X2=11.23 $Y2=0.985
r152 26 28 11.1752 $w=3.28e-07 $l=3.2e-07 $layer=LI1_cond $X=11.23 $Y=0.9
+ $X2=11.23 $Y2=0.58
r153 25 42 4.62375 $w=1.7e-07 $l=1.65e-07 $layer=LI1_cond $X=9.95 $Y=0.985
+ $X2=9.785 $Y2=0.985
r154 24 48 2.76166 $w=1.7e-07 $l=1.65e-07 $layer=LI1_cond $X=11.065 $Y=0.985
+ $X2=11.23 $Y2=0.985
r155 24 25 72.7433 $w=1.68e-07 $l=1.115e-06 $layer=LI1_cond $X=11.065 $Y=0.985
+ $X2=9.95 $Y2=0.985
r156 20 46 33.2236 $w=3.3e-07 $l=1.9e-07 $layer=POLY_cond $X=9.785 $Y=1.255
+ $X2=9.785 $Y2=1.065
r157 20 21 43.5886 $w=3.3e-07 $l=1.5e-07 $layer=POLY_cond $X=9.825 $Y=1.255
+ $X2=9.825 $Y2=1.405
r158 17 46 6.12014 $w=3.3e-07 $l=3.5e-08 $layer=POLY_cond $X=9.785 $Y=1.03
+ $X2=9.785 $Y2=1.065
r159 17 18 46.2115 $w=3.3e-07 $l=1.65e-07 $layer=POLY_cond $X=9.785 $Y=1.03
+ $X2=9.785 $Y2=0.865
r160 14 22 89.6095 $w=1.8e-07 $l=2.25e-07 $layer=POLY_cond $X=10.44 $Y=2.465
+ $X2=10.44 $Y2=2.24
r161 14 16 91.58 $w=1.5e-07 $l=2.85e-07 $layer=POLY_cond $X=10.44 $Y=2.465
+ $X2=10.44 $Y2=2.75
r162 12 22 7.1379 $w=1.5e-07 $l=9e-08 $layer=POLY_cond $X=10.35 $Y=2.24
+ $X2=10.44 $Y2=2.24
r163 12 13 164.085 $w=1.5e-07 $l=3.2e-07 $layer=POLY_cond $X=10.35 $Y=2.24
+ $X2=10.03 $Y2=2.24
r164 11 13 26.9307 $w=1.5e-07 $l=1.06066e-07 $layer=POLY_cond $X=9.955 $Y=2.165
+ $X2=10.03 $Y2=2.24
r165 11 21 389.702 $w=1.5e-07 $l=7.6e-07 $layer=POLY_cond $X=9.955 $Y=2.165
+ $X2=9.955 $Y2=1.405
r166 9 18 91.58 $w=1.5e-07 $l=2.85e-07 $layer=POLY_cond $X=9.695 $Y=0.58
+ $X2=9.695 $Y2=0.865
r167 2 36 600 $w=1.7e-07 $l=2.71109e-07 $layer=licon1_PDIFF $count=1 $X=11.525
+ $Y=2.54 $X2=11.665 $Y2=2.75
r168 1 28 182 $w=1.7e-07 $l=2.71109e-07 $layer=licon1_NDIFF $count=1 $X=11.09
+ $Y=0.37 $X2=11.23 $Y2=0.58
.ends

.subckt PM_SKY130_FD_SC_HS__SDFSBP_1%A_1762_74# 1 2 3 10 12 14 16 17 19 22 24 25
+ 26 28 29 33 35 37 40 42 43 46 47 51 53 57 59 63 67 68 71 76 77
c194 68 0 3.56881e-20 $X=9.212 $Y=1.85
c195 47 0 1.92388e-19 $X=13.14 $Y=1.79
r196 76 77 10.7321 $w=3.28e-07 $l=2.3e-07 $layer=LI1_cond $X=11.115 $Y=2.75
+ $X2=11.115 $Y2=2.52
r197 71 73 9.45989 $w=1.68e-07 $l=1.45e-07 $layer=LI1_cond $X=10.085 $Y=2.035
+ $X2=10.085 $Y2=2.18
r198 67 69 0.688026 $w=3.33e-07 $l=2e-08 $layer=LI1_cond $X=9.212 $Y=2.015
+ $X2=9.212 $Y2=2.035
r199 67 68 8.46614 $w=3.33e-07 $l=1.65e-07 $layer=LI1_cond $X=9.212 $Y=2.015
+ $X2=9.212 $Y2=1.85
r200 65 68 52.1925 $w=1.68e-07 $l=8e-07 $layer=LI1_cond $X=9.295 $Y=1.05
+ $X2=9.295 $Y2=1.85
r201 63 65 17.5613 $w=5.93e-07 $l=5.35e-07 $layer=LI1_cond $X=9.082 $Y=0.515
+ $X2=9.082 $Y2=1.05
r202 59 60 72.64 $w=1.7e-07 $l=3.4e-07 $layer=licon1_POLY $count=2 $X=11.73
+ $Y=1.805 $X2=11.73 $Y2=1.805
r203 57 81 24.4652 $w=1.68e-07 $l=3.75e-07 $layer=LI1_cond $X=11.195 $Y=1.805
+ $X2=11.195 $Y2=2.18
r204 57 59 15.7151 $w=3.28e-07 $l=4.5e-07 $layer=LI1_cond $X=11.28 $Y=1.805
+ $X2=11.73 $Y2=1.805
r205 55 81 5.54545 $w=1.68e-07 $l=8.5e-08 $layer=LI1_cond $X=11.195 $Y=2.265
+ $X2=11.195 $Y2=2.18
r206 55 77 16.6364 $w=1.68e-07 $l=2.55e-07 $layer=LI1_cond $X=11.195 $Y=2.265
+ $X2=11.195 $Y2=2.52
r207 54 73 0.716491 $w=1.7e-07 $l=8.5e-08 $layer=LI1_cond $X=10.17 $Y=2.18
+ $X2=10.085 $Y2=2.18
r208 53 81 0.716491 $w=1.7e-07 $l=8.5e-08 $layer=LI1_cond $X=11.11 $Y=2.18
+ $X2=11.195 $Y2=2.18
r209 53 54 61.3262 $w=1.68e-07 $l=9.4e-07 $layer=LI1_cond $X=11.11 $Y=2.18
+ $X2=10.17 $Y2=2.18
r210 52 69 4.71304 $w=1.7e-07 $l=1.68e-07 $layer=LI1_cond $X=9.38 $Y=2.035
+ $X2=9.212 $Y2=2.035
r211 51 71 0.716491 $w=1.7e-07 $l=8.5e-08 $layer=LI1_cond $X=10 $Y=2.035
+ $X2=10.085 $Y2=2.035
r212 51 52 40.4492 $w=1.68e-07 $l=6.2e-07 $layer=LI1_cond $X=10 $Y=2.035
+ $X2=9.38 $Y2=2.035
r213 47 48 57.9764 $w=2.12e-07 $l=2.55e-07 $layer=POLY_cond $X=13.14 $Y=1.79
+ $X2=13.395 $Y2=1.79
r214 43 60 11.3783 $w=3.55e-07 $l=7e-08 $layer=POLY_cond $X=11.8 $Y=1.792
+ $X2=11.73 $Y2=1.792
r215 43 44 13.5596 $w=3.55e-07 $l=1.30457e-07 $layer=POLY_cond $X=11.8 $Y=1.792
+ $X2=11.89 $Y2=1.885
r216 42 60 57.7042 $w=3.55e-07 $l=3.55e-07 $layer=POLY_cond $X=11.375 $Y=1.792
+ $X2=11.73 $Y2=1.792
r217 38 40 146.138 $w=1.5e-07 $l=2.85e-07 $layer=POLY_cond $X=11.015 $Y=0.94
+ $X2=11.3 $Y2=0.94