* File: sky130_fd_sc_hs__sdfsbp_2.pex.spice
* Created: Tue Sep  1 20:23:04 2020
* Program "Calibre xRC"
* Version "v2018.4_34.26"
* Nominal Temperature: 27C
* Circuit Temperature: 27C
* 
.subckt PM_SKY130_FD_SC_HS__SDFSBP_2%A_27_74# 1 2 9 10 12 15 18 21 25 26 28 30
+ 31 33 39
c77 33 0 1.76481e-19 $X=1.94 $Y=1.975
r78 33 36 2.7938 $w=3.28e-07 $l=8e-08 $layer=LI1_cond $X=1.94 $Y=1.975 $X2=1.94
+ $Y2=2.055
r79 33 34 145.28 $w=1.7e-07 $l=1.7e-07 $layer=licon1_POLY $count=1 $X=1.94
+ $Y=1.975 $X2=1.94 $Y2=1.975
r80 29 31 3.11956 $w=1.7e-07 $l=1.9e-07 $layer=LI1_cond $X=0.465 $Y=2.055
+ $X2=0.275 $Y2=2.055
r81 28 36 4.62375 $w=1.7e-07 $l=1.65e-07 $layer=LI1_cond $X=1.775 $Y=2.055
+ $X2=1.94 $Y2=2.055
r82 28 29 85.4652 $w=1.68e-07 $l=1.31e-06 $layer=LI1_cond $X=1.775 $Y=2.055
+ $X2=0.465 $Y2=2.055
r83 26 39 46.2115 $w=3.3e-07 $l=1.65e-07 $layer=POLY_cond $X=0.98 $Y=1.065
+ $X2=0.98 $Y2=0.9
r84 25 26 145.28 $w=1.7e-07 $l=1.7e-07 $layer=licon1_POLY $count=1 $X=0.98
+ $Y=1.065 $X2=0.98 $Y2=1.065
r85 23 30 0.565906 $w=3.3e-07 $l=1.8e-07 $layer=LI1_cond $X=0.445 $Y=1.065
+ $X2=0.265 $Y2=1.065
r86 23 25 18.6835 $w=3.28e-07 $l=5.35e-07 $layer=LI1_cond $X=0.445 $Y=1.065
+ $X2=0.98 $Y2=1.065
r87 19 31 3.40559 $w=2.75e-07 $l=8.5e-08 $layer=LI1_cond $X=0.275 $Y=2.14
+ $X2=0.275 $Y2=2.055
r88 19 21 9.85642 $w=3.78e-07 $l=3.25e-07 $layer=LI1_cond $X=0.275 $Y=2.14
+ $X2=0.275 $Y2=2.465
r89 18 31 3.40559 $w=2.75e-07 $l=1.41244e-07 $layer=LI1_cond $X=0.17 $Y=1.97
+ $X2=0.275 $Y2=2.055
r90 17 30 6.17543 $w=2.65e-07 $l=2.07123e-07 $layer=LI1_cond $X=0.17 $Y=1.23
+ $X2=0.265 $Y2=1.065
r91 17 18 48.2781 $w=1.68e-07 $l=7.4e-07 $layer=LI1_cond $X=0.17 $Y=1.23
+ $X2=0.17 $Y2=1.97
r92 13 30 6.17543 $w=2.65e-07 $l=1.65e-07 $layer=LI1_cond $X=0.265 $Y=0.9
+ $X2=0.265 $Y2=1.065
r93 13 15 10.2439 $w=3.58e-07 $l=3.2e-07 $layer=LI1_cond $X=0.265 $Y=0.9
+ $X2=0.265 $Y2=0.58
r94 10 34 55.8646 $w=2.93e-07 $l=3.05205e-07 $layer=POLY_cond $X=2.015 $Y=2.245
+ $X2=1.94 $Y2=1.975
r95 10 12 126.927 $w=1.5e-07 $l=3.95e-07 $layer=POLY_cond $X=2.015 $Y=2.245
+ $X2=2.015 $Y2=2.64
r96 9 39 102.827 $w=1.5e-07 $l=3.2e-07 $layer=POLY_cond $X=1.07 $Y=0.58 $X2=1.07
+ $Y2=0.9
r97 2 21 300 $w=1.7e-07 $l=2.05061e-07 $layer=licon1_PDIFF $count=2 $X=0.155
+ $Y=2.32 $X2=0.3 $Y2=2.465
r98 1 15 182 $w=1.7e-07 $l=2.73038e-07 $layer=licon1_NDIFF $count=1 $X=0.135
+ $Y=0.37 $X2=0.28 $Y2=0.58
.ends

.subckt PM_SKY130_FD_SC_HS__SDFSBP_2%SCE 3 6 7 9 11 12 14 17 20 23 24 25 27 34
+ 35 36
c84 34 0 1.76481e-19 $X=2.13 $Y=1.065
r85 34 36 46.8261 $w=5.1e-07 $l=1.65e-07 $layer=POLY_cond $X=2.22 $Y=1.065
+ $X2=2.22 $Y2=0.9
r86 34 35 72.64 $w=1.7e-07 $l=3.4e-07 $layer=licon1_POLY $count=2 $X=2.13
+ $Y=1.065 $X2=2.13 $Y2=1.065
r87 29 30 4.49068 $w=3.22e-07 $l=3e-08 $layer=POLY_cond $X=0.495 $Y=1.635
+ $X2=0.525 $Y2=1.635
r88 27 35 8.03218 $w=3.28e-07 $l=2.3e-07 $layer=LI1_cond $X=2.13 $Y=1.295
+ $X2=2.13 $Y2=1.065
r89 26 27 3.66686 $w=3.28e-07 $l=1.05e-07 $layer=LI1_cond $X=2.13 $Y=1.4
+ $X2=2.13 $Y2=1.295
r90 24 32 15.7174 $w=3.22e-07 $l=1.05e-07 $layer=POLY_cond $X=0.92 $Y=1.635
+ $X2=1.025 $Y2=1.635
r91 24 30 59.1273 $w=3.22e-07 $l=3.95e-07 $layer=POLY_cond $X=0.92 $Y=1.635
+ $X2=0.525 $Y2=1.635
r92 23 25 8.64761 $w=3.98e-07 $l=1.65e-07 $layer=LI1_cond $X=0.92 $Y=1.6
+ $X2=1.085 $Y2=1.6
r93 23 24 72.64 $w=1.7e-07 $l=3.4e-07 $layer=licon1_POLY $count=2 $X=0.92
+ $Y=1.635 $X2=0.92 $Y2=1.635
r94 20 26 7.76618 $w=1.7e-07 $l=2.03101e-07 $layer=LI1_cond $X=1.965 $Y=1.485
+ $X2=2.13 $Y2=1.4
r95 20 25 57.4118 $w=1.68e-07 $l=8.8e-07 $layer=LI1_cond $X=1.965 $Y=1.485
+ $X2=1.085 $Y2=1.485
r96 17 36 102.827 $w=1.5e-07 $l=3.2e-07 $layer=POLY_cond $X=2.4 $Y=0.58 $X2=2.4
+ $Y2=0.9
r97 12 14 126.927 $w=1.5e-07 $l=3.95e-07 $layer=POLY_cond $X=1.025 $Y=2.245
+ $X2=1.025 $Y2=2.64
r98 11 12 36.0588 $w=1.8e-07 $l=9e-08 $layer=POLY_cond $X=1.025 $Y=2.155
+ $X2=1.025 $Y2=2.245
r99 10 32 16.3606 $w=1.8e-07 $l=1.65e-07 $layer=POLY_cond $X=1.025 $Y=1.8
+ $X2=1.025 $Y2=1.635
r100 10 11 137.992 $w=1.8e-07 $l=3.55e-07 $layer=POLY_cond $X=1.025 $Y=1.8
+ $X2=1.025 $Y2=2.155
r101 7 9 126.927 $w=1.5e-07 $l=3.95e-07 $layer=POLY_cond $X=0.525 $Y=2.245
+ $X2=0.525 $Y2=2.64
r102 6 7 36.0588 $w=1.8e-07 $l=9e-08 $layer=POLY_cond $X=0.525 $Y=2.155
+ $X2=0.525 $Y2=2.245
r103 5 30 16.3606 $w=1.8e-07 $l=1.65e-07 $layer=POLY_cond $X=0.525 $Y=1.8
+ $X2=0.525 $Y2=1.635
r104 5 6 137.992 $w=1.8e-07 $l=3.55e-07 $layer=POLY_cond $X=0.525 $Y=1.8
+ $X2=0.525 $Y2=2.155
r105 1 29 20.6399 $w=1.5e-07 $l=1.65e-07 $layer=POLY_cond $X=0.495 $Y=1.47
+ $X2=0.495 $Y2=1.635
r106 1 3 456.362 $w=1.5e-07 $l=8.9e-07 $layer=POLY_cond $X=0.495 $Y=1.47
+ $X2=0.495 $Y2=0.58
.ends

.subckt PM_SKY130_FD_SC_HS__SDFSBP_2%D 1 2 3 5 8 11 12 13 17 19
r49 17 20 46.2115 $w=3.3e-07 $l=1.65e-07 $layer=POLY_cond $X=1.55 $Y=1.065
+ $X2=1.55 $Y2=1.23
r50 17 19 46.2115 $w=3.3e-07 $l=1.65e-07 $layer=POLY_cond $X=1.55 $Y=1.065
+ $X2=1.55 $Y2=0.9
r51 17 18 145.28 $w=1.7e-07 $l=1.7e-07 $layer=licon1_POLY $count=1 $X=1.55
+ $Y=1.065 $X2=1.55 $Y2=1.065
r52 13 18 3.93517 $w=4.08e-07 $l=1.4e-07 $layer=LI1_cond $X=1.59 $Y=0.925
+ $X2=1.59 $Y2=1.065
r53 12 13 10.4001 $w=4.08e-07 $l=3.7e-07 $layer=LI1_cond $X=1.59 $Y=0.555
+ $X2=1.59 $Y2=0.925
r54 11 20 123.064 $w=1.5e-07 $l=2.4e-07 $layer=POLY_cond $X=1.46 $Y=1.47
+ $X2=1.46 $Y2=1.23
r55 8 19 102.827 $w=1.5e-07 $l=3.2e-07 $layer=POLY_cond $X=1.46 $Y=0.58 $X2=1.46
+ $Y2=0.9
r56 3 5 126.927 $w=1.5e-07 $l=3.95e-07 $layer=POLY_cond $X=1.445 $Y=2.245
+ $X2=1.445 $Y2=2.64
r57 2 3 36.0588 $w=1.8e-07 $l=9e-08 $layer=POLY_cond $X=1.445 $Y=2.155 $X2=1.445
+ $Y2=2.245
r58 1 11 37.1337 $w=1.8e-07 $l=9e-08 $layer=POLY_cond $X=1.445 $Y=1.56 $X2=1.445
+ $Y2=1.47
r59 1 2 231.282 $w=1.8e-07 $l=5.95e-07 $layer=POLY_cond $X=1.445 $Y=1.56
+ $X2=1.445 $Y2=2.155
.ends

.subckt PM_SKY130_FD_SC_HS__SDFSBP_2%SCD 2 3 5 6 7 10 13 15 16 17 20
r52 20 22 46.1517 $w=4.2e-07 $l=1.65e-07 $layer=POLY_cond $X=2.925 $Y=1.115
+ $X2=2.925 $Y2=0.95
r53 20 21 72.64 $w=1.7e-07 $l=3.4e-07 $layer=licon1_POLY $count=2 $X=2.97
+ $Y=1.115 $X2=2.97 $Y2=1.115
r54 17 21 2.67779 $w=6.68e-07 $l=1.5e-07 $layer=LI1_cond $X=3.12 $Y=1.285
+ $X2=2.97 $Y2=1.285
r55 15 16 97.4255 $w=1.5e-07 $l=1.9e-07 $layer=POLY_cond $X=2.79 $Y=1.81
+ $X2=2.79 $Y2=1.62
r56 13 16 52.1105 $w=4.2e-07 $l=2.1e-07 $layer=POLY_cond $X=2.925 $Y=1.41
+ $X2=2.925 $Y2=1.62
r57 12 20 5.95879 $w=4.2e-07 $l=4.5e-08 $layer=POLY_cond $X=2.925 $Y=1.16
+ $X2=2.925 $Y2=1.115
r58 12 13 33.1044 $w=4.2e-07 $l=2.5e-07 $layer=POLY_cond $X=2.925 $Y=1.16
+ $X2=2.925 $Y2=1.41
r59 10 22 189.723 $w=1.5e-07 $l=3.7e-07 $layer=POLY_cond $X=2.79 $Y=0.58
+ $X2=2.79 $Y2=0.95
r60 6 15 26.9307 $w=1.5e-07 $l=1.06066e-07 $layer=POLY_cond $X=2.715 $Y=1.885
+ $X2=2.79 $Y2=1.81
r61 6 7 97.4255 $w=1.5e-07 $l=1.9e-07 $layer=POLY_cond $X=2.715 $Y=1.885
+ $X2=2.525 $Y2=1.885
r62 3 5 126.927 $w=1.5e-07 $l=3.95e-07 $layer=POLY_cond $X=2.435 $Y=2.245
+ $X2=2.435 $Y2=2.64
r63 2 3 36.0588 $w=1.8e-07 $l=9e-08 $layer=POLY_cond $X=2.435 $Y=2.155 $X2=2.435
+ $Y2=2.245
r64 1 7 27.2212 $w=1.5e-07 $l=1.21861e-07 $layer=POLY_cond $X=2.435 $Y=1.96
+ $X2=2.525 $Y2=1.885
r65 1 2 75.7984 $w=1.8e-07 $l=1.95e-07 $layer=POLY_cond $X=2.435 $Y=1.96
+ $X2=2.435 $Y2=2.155
.ends

.subckt PM_SKY130_FD_SC_HS__SDFSBP_2%CLK 1 3 4 6 7
c34 4 0 9.27061e-20 $X=3.78 $Y=1.22
c35 1 0 1.34113e-19 $X=3.465 $Y=1.765
r36 10 11 145.28 $w=1.7e-07 $l=1.7e-07 $layer=licon1_POLY $count=1 $X=3.83
+ $Y=1.385 $X2=3.83 $Y2=1.385
r37 7 11 7.78678 $w=3.68e-07 $l=2.5e-07 $layer=LI1_cond $X=4.08 $Y=1.365
+ $X2=3.83 $Y2=1.365
r38 4 10 40.5859 $w=4.46e-07 $l=2.07123e-07 $layer=POLY_cond $X=3.78 $Y=1.22
+ $X2=3.685 $Y2=1.385
r39 4 6 154.24 $w=1.5e-07 $l=4.8e-07 $layer=POLY_cond $X=3.78 $Y=1.22 $X2=3.78
+ $Y2=0.74
r40 1 10 63.8213 $w=4.46e-07 $l=4.77493e-07 $layer=POLY_cond $X=3.465 $Y=1.765
+ $X2=3.685 $Y2=1.385
r41 1 3 204.047 $w=1.5e-07 $l=6.35e-07 $layer=POLY_cond $X=3.465 $Y=1.765
+ $X2=3.465 $Y2=2.4
.ends

.subckt PM_SKY130_FD_SC_HS__SDFSBP_2%A_871_74# 1 2 8 9 11 12 13 16 20 24 26 27
+ 28 31 32 34 37 40 44 46 47 48 49 52 53 59 60 63 64 67 68 69 71 72 73 75 77 80
+ 83 86 87 88 98
c272 87 0 1.69669e-19 $X=6.187 $Y=2.25
c273 83 0 1.33892e-19 $X=11.225 $Y=1.365
c274 80 0 7.75954e-20 $X=10.545 $Y=1.365
c275 73 0 1.56558e-19 $X=8.165 $Y=2.135
c276 59 0 1.02354e-19 $X=6.185 $Y=1.135
c277 47 0 9.27061e-20 $X=4.66 $Y=0.34
c278 46 0 1.10104e-19 $X=5.39 $Y=0.34
c279 37 0 1.21895e-19 $X=5.395 $Y=1.96
c280 9 0 3.32958e-20 $X=5.43 $Y=2.24
c281 8 0 6.21188e-20 $X=5.43 $Y=2.15
r282 84 98 46.1517 $w=4.2e-07 $l=1.65e-07 $layer=POLY_cond $X=11.225 $Y=1.41
+ $X2=11.39 $Y2=1.41
r283 83 84 96.8533 $w=1.7e-07 $l=2.55e-07 $layer=licon1_POLY $count=1 $X=11.225
+ $Y=1.365 $X2=11.225 $Y2=1.365
r284 81 96 30.5693 $w=3.39e-07 $l=2.15e-07 $layer=POLY_cond $X=10.545 $Y=1.41
+ $X2=10.76 $Y2=1.41
r285 80 88 8.03587 $w=3.28e-07 $l=1.65e-07 $layer=LI1_cond $X=10.545 $Y=1.365
+ $X2=10.38 $Y2=1.365
r286 80 83 23.7473 $w=3.28e-07 $l=6.8e-07 $layer=LI1_cond $X=10.545 $Y=1.365
+ $X2=11.225 $Y2=1.365
r287 80 81 96.8533 $w=1.7e-07 $l=2.55e-07 $layer=licon1_POLY $count=1 $X=10.545
+ $Y=1.365 $X2=10.545 $Y2=1.365
r288 77 88 118.412 $w=1.68e-07 $l=1.815e-06 $layer=LI1_cond $X=8.565 $Y=1.43
+ $X2=10.38 $Y2=1.43
r289 74 77 6.81649 $w=1.7e-07 $l=1.20208e-07 $layer=LI1_cond $X=8.48 $Y=1.515
+ $X2=8.565 $Y2=1.43
r290 74 75 34.9037 $w=1.68e-07 $l=5.35e-07 $layer=LI1_cond $X=8.48 $Y=1.515
+ $X2=8.48 $Y2=2.05
r291 72 75 6.81649 $w=1.7e-07 $l=1.20208e-07 $layer=LI1_cond $X=8.395 $Y=2.135
+ $X2=8.48 $Y2=2.05
r292 72 73 15.0053 $w=1.68e-07 $l=2.3e-07 $layer=LI1_cond $X=8.395 $Y=2.135
+ $X2=8.165 $Y2=2.135
r293 70 73 6.81649 $w=1.7e-07 $l=1.20208e-07 $layer=LI1_cond $X=8.08 $Y=2.22
+ $X2=8.165 $Y2=2.135
r294 70 71 44.6898 $w=1.68e-07 $l=6.85e-07 $layer=LI1_cond $X=8.08 $Y=2.22
+ $X2=8.08 $Y2=2.905
r295 68 71 6.81649 $w=1.7e-07 $l=1.20208e-07 $layer=LI1_cond $X=7.995 $Y=2.99
+ $X2=8.08 $Y2=2.905
r296 68 69 43.7112 $w=1.68e-07 $l=6.7e-07 $layer=LI1_cond $X=7.995 $Y=2.99
+ $X2=7.325 $Y2=2.99
r297 67 69 6.81649 $w=1.7e-07 $l=1.20208e-07 $layer=LI1_cond $X=7.24 $Y=2.905
+ $X2=7.325 $Y2=2.99
r298 66 67 37.1872 $w=1.68e-07 $l=5.7e-07 $layer=LI1_cond $X=7.24 $Y=2.335
+ $X2=7.24 $Y2=2.905
r299 65 87 1.97946 $w=1.7e-07 $l=1.18e-07 $layer=LI1_cond $X=6.305 $Y=2.25
+ $X2=6.187 $Y2=2.25
r300 64 66 6.81649 $w=1.7e-07 $l=1.20208e-07 $layer=LI1_cond $X=7.155 $Y=2.25
+ $X2=7.24 $Y2=2.335
r301 64 65 55.4545 $w=1.68e-07 $l=8.5e-07 $layer=LI1_cond $X=7.155 $Y=2.25
+ $X2=6.305 $Y2=2.25
r302 62 87 4.45556 $w=2.02e-07 $l=9.97246e-08 $layer=LI1_cond $X=6.155 $Y=2.335
+ $X2=6.187 $Y2=2.25
r303 62 63 37.1872 $w=1.68e-07 $l=5.7e-07 $layer=LI1_cond $X=6.155 $Y=2.335
+ $X2=6.155 $Y2=2.905
r304 60 92 37.9199 $w=3.5e-07 $l=2.3e-07 $layer=POLY_cond $X=6.195 $Y=1.135
+ $X2=6.195 $Y2=1.365
r305 60 91 46.4315 $w=3.5e-07 $l=1.65e-07 $layer=POLY_cond $X=6.195 $Y=1.135
+ $X2=6.195 $Y2=0.97
r306 59 60 72.64 $w=1.7e-07 $l=3.4e-07 $layer=licon1_POLY $count=2 $X=6.185
+ $Y=1.135 $X2=6.185 $Y2=1.135
r307 57 87 4.45556 $w=2.02e-07 $l=8.5e-08 $layer=LI1_cond $X=6.187 $Y=2.165
+ $X2=6.187 $Y2=2.25
r308 57 59 50.5113 $w=2.33e-07 $l=1.03e-06 $layer=LI1_cond $X=6.187 $Y=2.165
+ $X2=6.187 $Y2=1.135
r309 55 86 56.4332 $w=1.68e-07 $l=8.65e-07 $layer=LI1_cond $X=5.475 $Y=0.425
+ $X2=5.475 $Y2=1.29
r310 52 86 8.46218 $w=3.28e-07 $l=1.65e-07 $layer=LI1_cond $X=5.395 $Y=1.455
+ $X2=5.395 $Y2=1.29
r311 52 53 72.64 $w=1.7e-07 $l=3.4e-07 $layer=licon1_POLY $count=2 $X=5.395
+ $Y=1.455 $X2=5.395 $Y2=1.455
r312 48 63 6.81649 $w=1.7e-07 $l=1.20208e-07 $layer=LI1_cond $X=6.07 $Y=2.99
+ $X2=6.155 $Y2=2.905
r313 48 49 88.0749 $w=1.68e-07 $l=1.35e-06 $layer=LI1_cond $X=6.07 $Y=2.99
+ $X2=4.72 $Y2=2.99
r314 46 55 6.81649 $w=1.7e-07 $l=1.20208e-07 $layer=LI1_cond $X=5.39 $Y=0.34
+ $X2=5.475 $Y2=0.425
r315 46 47 47.6257 $w=1.68e-07 $l=7.3e-07 $layer=LI1_cond $X=5.39 $Y=0.34
+ $X2=4.66 $Y2=0.34
r316 42 49 7.76618 $w=1.7e-07 $l=2.03101e-07 $layer=LI1_cond $X=4.555 $Y=2.905
+ $X2=4.72 $Y2=2.99
r317 42 44 6.28605 $w=3.28e-07 $l=1.8e-07 $layer=LI1_cond $X=4.555 $Y=2.905
+ $X2=4.555 $Y2=2.725
r318 38 47 7.76618 $w=1.7e-07 $l=2.03101e-07 $layer=LI1_cond $X=4.495 $Y=0.425
+ $X2=4.66 $Y2=0.34
r319 38 40 2.7938 $w=3.28e-07 $l=8e-08 $layer=LI1_cond $X=4.495 $Y=0.425
+ $X2=4.495 $Y2=0.505
r320 36 53 59.4528 $w=3.3e-07 $l=3.4e-07 $layer=POLY_cond $X=5.395 $Y=1.795
+ $X2=5.395 $Y2=1.455
r321 36 37 36.5727 $w=3.3e-07 $l=1.65e-07 $layer=POLY_cond $X=5.395 $Y=1.795
+ $X2=5.395 $Y2=1.96
r322 35 53 2.62292 $w=3.3e-07 $l=1.5e-08 $layer=POLY_cond $X=5.395 $Y=1.44
+ $X2=5.395 $Y2=1.455
r323 32 34 91.58 $w=1.5e-07 $l=2.85e-07 $layer=POLY_cond $X=11.76 $Y=2.2
+ $X2=11.76 $Y2=2.485
r324 31 32 36.0588 $w=1.8e-07 $l=9e-08 $layer=POLY_cond $X=11.76 $Y=2.11
+ $X2=11.76 $Y2=2.2
r325 30 31 190.468 $w=1.8e-07 $l=4.9e-07 $layer=POLY_cond $X=11.76 $Y=1.62
+ $X2=11.76 $Y2=2.11
r326 28 30 27.2212 $w=1.5e-07 $l=1.21861e-07 $layer=POLY_cond $X=11.67 $Y=1.545
+ $X2=11.76 $Y2=1.62
r327 28 98 143.574 $w=1.5e-07 $l=2.8e-07 $layer=POLY_cond $X=11.67 $Y=1.545
+ $X2=11.39 $Y2=1.545
r328 27 96 10.5406 $w=4.2e-07 $l=7.5e-08 $layer=POLY_cond $X=10.835 $Y=1.41
+ $X2=10.76 $Y2=1.41
r329 26 84 5.95879 $w=4.2e-07 $l=4.5e-08 $layer=POLY_cond $X=11.18 $Y=1.41
+ $X2=11.225 $Y2=1.41
r330 26 27 45.6841 $w=4.2e-07 $l=3.45e-07 $layer=POLY_cond $X=11.18 $Y=1.41
+ $X2=10.835 $Y2=1.41
r331 22 96 21.8644 $w=1.5e-07 $l=2.1e-07 $layer=POLY_cond $X=10.76 $Y=1.2
+ $X2=10.76 $Y2=1.41
r332 22 24 261.511 $w=1.5e-07 $l=5.1e-07 $layer=POLY_cond $X=10.76 $Y=1.2
+ $X2=10.76 $Y2=0.69
r333 18 81 40.5221 $w=3.39e-07 $l=3.756e-07 $layer=POLY_cond $X=10.26 $Y=1.2
+ $X2=10.545 $Y2=1.41
r334 18 20 261.511 $w=1.5e-07 $l=5.1e-07 $layer=POLY_cond $X=10.26 $Y=1.2
+ $X2=10.26 $Y2=0.69
r335 16 91 182.032 $w=1.5e-07 $l=3.55e-07 $layer=POLY_cond $X=6.295 $Y=0.615
+ $X2=6.295 $Y2=0.97
r336 13 35 32.1775 $w=1.5e-07 $l=1.98997e-07 $layer=POLY_cond $X=5.56 $Y=1.365
+ $X2=5.395 $Y2=1.44
r337 12 92 22.6286 $w=1.5e-07 $l=1.75e-07 $layer=POLY_cond $X=6.02 $Y=1.365
+ $X2=6.195 $Y2=1.365
r338 12 13 235.872 $w=1.5e-07 $l=4.6e-07 $layer=POLY_cond $X=6.02 $Y=1.365
+ $X2=5.56 $Y2=1.365
r339 9 11 91.58 $w=1.5e-07 $l=2.85e-07 $layer=POLY_cond $X=5.43 $Y=2.24 $X2=5.43
+ $Y2=2.525
r340 8 9 36.0588 $w=1.8e-07 $l=9e-08 $layer=POLY_cond $X=5.43 $Y=2.15 $X2=5.43
+ $Y2=2.24
r341 8 37 73.8548 $w=1.8e-07 $l=1.9e-07 $layer=POLY_cond $X=5.43 $Y=2.15
+ $X2=5.43 $Y2=1.96
r342 2 44 600 $w=1.7e-07 $l=9.73114e-07 $layer=licon1_PDIFF $count=1 $X=4.37
+ $Y=1.84 $X2=4.555 $Y2=2.725
r343 1 40 91 $w=1.7e-07 $l=1.96214e-07 $layer=licon1_NDIFF $count=2 $X=4.355
+ $Y=0.37 $X2=4.495 $Y2=0.505
.ends

.subckt PM_SKY130_FD_SC_HS__SDFSBP_2%A_1252_376# 1 2 7 9 10 12 14 17 19 22 24 28
+ 32 39 40 43 47
c91 47 0 1.02354e-19 $X=6.89 $Y=1.1
c92 24 0 1.50114e-19 $X=7.38 $Y=0.955
c93 22 0 1.15615e-19 $X=6.8 $Y=1.865
c94 7 0 7.37914e-20 $X=6.35 $Y=2.24
r95 39 40 10.3829 $w=3.28e-07 $l=2.2e-07 $layer=LI1_cond $X=7.66 $Y=2.515
+ $X2=7.66 $Y2=2.295
r96 36 47 16.6207 $w=2.61e-07 $l=9e-08 $layer=POLY_cond $X=6.98 $Y=1.1 $X2=6.89
+ $Y2=1.1
r97 35 36 145.28 $w=1.7e-07 $l=1.7e-07 $layer=licon1_POLY $count=1 $X=6.98
+ $Y=1.1 $X2=6.98 $Y2=1.1
r98 32 35 5.06376 $w=3.28e-07 $l=1.45e-07 $layer=LI1_cond $X=6.98 $Y=0.955
+ $X2=6.98 $Y2=1.1
r99 30 40 19.5722 $w=1.68e-07 $l=3e-07 $layer=LI1_cond $X=7.58 $Y=1.995 $X2=7.58
+ $Y2=2.295
r100 26 28 10.1275 $w=3.28e-07 $l=2.9e-07 $layer=LI1_cond $X=7.545 $Y=0.87
+ $X2=7.545 $Y2=0.58
r101 25 32 4.62375 $w=1.7e-07 $l=1.65e-07 $layer=LI1_cond $X=7.145 $Y=0.955
+ $X2=6.98 $Y2=0.955
r102 24 26 7.76618 $w=1.7e-07 $l=2.03101e-07 $layer=LI1_cond $X=7.38 $Y=0.955
+ $X2=7.545 $Y2=0.87
r103 24 25 15.3316 $w=1.68e-07 $l=2.35e-07 $layer=LI1_cond $X=7.38 $Y=0.955
+ $X2=7.145 $Y2=0.955
r104 22 44 15.7375 $w=3.3e-07 $l=9e-08 $layer=POLY_cond $X=6.8 $Y=1.865 $X2=6.8
+ $Y2=1.955
r105 22 43 46.2115 $w=3.3e-07 $l=1.65e-07 $layer=POLY_cond $X=6.8 $Y=1.865
+ $X2=6.8 $Y2=1.7
r106 21 22 145.28 $w=1.7e-07 $l=1.7e-07 $layer=licon1_POLY $count=1 $X=6.8
+ $Y=1.865 $X2=6.8 $Y2=1.865
r107 19 30 7.21222 $w=2.6e-07 $l=1.67183e-07 $layer=LI1_cond $X=7.495 $Y=1.865
+ $X2=7.58 $Y2=1.995
r108 19 21 30.8057 $w=2.58e-07 $l=6.95e-07 $layer=LI1_cond $X=7.495 $Y=1.865
+ $X2=6.8 $Y2=1.865
r109 15 47 15.717 $w=1.5e-07 $l=1.65e-07 $layer=POLY_cond $X=6.89 $Y=1.265
+ $X2=6.89 $Y2=1.1
r110 15 43 223.053 $w=1.5e-07 $l=4.35e-07 $layer=POLY_cond $X=6.89 $Y=1.265
+ $X2=6.89 $Y2=1.7
r111 12 47 37.8582 $w=2.61e-07 $l=2.75409e-07 $layer=POLY_cond $X=6.685 $Y=0.935
+ $X2=6.89 $Y2=1.1
r112 12 14 102.827 $w=1.5e-07 $l=3.2e-07 $layer=POLY_cond $X=6.685 $Y=0.935
+ $X2=6.685 $Y2=0.615
r113 11 17 7.1379 $w=1.5e-07 $l=9e-08 $layer=POLY_cond $X=6.44 $Y=1.955 $X2=6.35
+ $Y2=1.955
r114 10 44 21.2229 $w=1.5e-07 $l=1.65e-07 $layer=POLY_cond $X=6.635 $Y=1.955
+ $X2=6.8 $Y2=1.955
r115 10 11 99.9894 $w=1.5e-07 $l=1.95e-07 $layer=POLY_cond $X=6.635 $Y=1.955
+ $X2=6.44 $Y2=1.955
r116 7 17 112.932 $w=1.8e-07 $l=2.85e-07 $layer=POLY_cond $X=6.35 $Y=2.24
+ $X2=6.35 $Y2=1.955
r117 7 9 91.58 $w=1.5e-07 $l=2.85e-07 $layer=POLY_cond $X=6.35 $Y=2.24 $X2=6.35
+ $Y2=2.525
r118 2 39 600 $w=1.7e-07 $l=2.64575e-07 $layer=licon1_PDIFF $count=1 $X=7.51
+ $Y=2.315 $X2=7.66 $Y2=2.515
r119 1 28 182 $w=1.7e-07 $l=2.73038e-07 $layer=licon1_NDIFF $count=1 $X=7.4
+ $Y=0.37 $X2=7.545 $Y2=0.58
.ends

.subckt PM_SKY130_FD_SC_HS__SDFSBP_2%A_1069_81# 1 2 8 9 11 14 16 19 20 22 25 26
+ 29 30 32 35 37 38 40 43 44 48 49 50 51 53 55 56 59 60 62 66
c187 62 0 4.48044e-20 $X=7.51 $Y=1.295
c188 60 0 7.37914e-20 $X=5.72 $Y=2.295
c189 59 0 1.21895e-19 $X=5.705 $Y=2.515
c190 50 0 1.15615e-19 $X=6.645 $Y=1.48
c191 37 0 1.14148e-19 $X=9.365 $Y=1.16
c192 29 0 7.75954e-20 $X=9.815 $Y=1.955
c193 20 0 3.30716e-19 $X=9.365 $Y=2.045
c194 8 0 1.56558e-19 $X=7.435 $Y=2.15
r195 66 73 12.1213 $w=3.38e-07 $l=8.5e-08 $layer=POLY_cond $X=7.52 $Y=1.4
+ $X2=7.435 $Y2=1.4
r196 65 67 3.90344 $w=3.08e-07 $l=1.05e-07 $layer=LI1_cond $X=7.51 $Y=1.375
+ $X2=7.51 $Y2=1.48
r197 65 66 145.28 $w=1.7e-07 $l=1.7e-07 $layer=licon1_POLY $count=1 $X=7.52
+ $Y=1.375 $X2=7.52 $Y2=1.375
r198 62 65 2.97405 $w=3.08e-07 $l=8e-08 $layer=LI1_cond $X=7.51 $Y=1.295
+ $X2=7.51 $Y2=1.375
r199 59 60 10.2717 $w=3.58e-07 $l=2.2e-07 $layer=LI1_cond $X=5.72 $Y=2.515
+ $X2=5.72 $Y2=2.295
r200 56 78 16.6118 $w=3.3e-07 $l=9.5e-08 $layer=POLY_cond $X=8.695 $Y=1.065
+ $X2=8.695 $Y2=1.16
r201 55 56 145.28 $w=1.7e-07 $l=1.7e-07 $layer=licon1_POLY $count=1 $X=8.695
+ $Y=1.065 $X2=8.695 $Y2=1.065
r202 53 71 16.8321 $w=1.68e-07 $l=2.58e-07 $layer=LI1_cond $X=7.965 $Y=1.037
+ $X2=7.965 $Y2=1.295
r203 53 55 27.03 $w=2.73e-07 $l=6.45e-07 $layer=LI1_cond $X=8.05 $Y=1.037
+ $X2=8.695 $Y2=1.037
r204 52 62 4.25403 $w=1.7e-07 $l=1.55e-07 $layer=LI1_cond $X=7.665 $Y=1.295
+ $X2=7.51 $Y2=1.295
r205 51 71 0.716491 $w=1.7e-07 $l=8.5e-08 $layer=LI1_cond $X=7.88 $Y=1.295
+ $X2=7.965 $Y2=1.295
r206 51 52 14.0267 $w=1.68e-07 $l=2.15e-07 $layer=LI1_cond $X=7.88 $Y=1.295
+ $X2=7.665 $Y2=1.295
r207 49 67 4.25403 $w=1.7e-07 $l=1.55e-07 $layer=LI1_cond $X=7.355 $Y=1.48
+ $X2=7.51 $Y2=1.48
r208 49 50 46.3209 $w=1.68e-07 $l=7.1e-07 $layer=LI1_cond $X=7.355 $Y=1.48
+ $X2=6.645 $Y2=1.48
r209 48 50 6.81649 $w=1.7e-07 $l=1.20208e-07 $layer=LI1_cond $X=6.56 $Y=1.395
+ $X2=6.645 $Y2=1.48
r210 47 48 38.8182 $w=1.68e-07 $l=5.95e-07 $layer=LI1_cond $X=6.56 $Y=0.8
+ $X2=6.56 $Y2=1.395
r211 44 46 2.96841 $w=3.28e-07 $l=8.5e-08 $layer=LI1_cond $X=5.9 $Y=0.635
+ $X2=5.985 $Y2=0.635
r212 43 47 7.76618 $w=3.3e-07 $l=2.03101e-07 $layer=LI1_cond $X=6.475 $Y=0.635
+ $X2=6.56 $Y2=0.8
r213 43 46 17.112 $w=3.28e-07 $l=4.9e-07 $layer=LI1_cond $X=6.475 $Y=0.635
+ $X2=5.985 $Y2=0.635
r214 41 44 7.76618 $w=3.3e-07 $l=2.03101e-07 $layer=LI1_cond $X=5.815 $Y=0.8
+ $X2=5.9 $Y2=0.635
r215 41 60 97.5348 $w=1.68e-07 $l=1.495e-06 $layer=LI1_cond $X=5.815 $Y=0.8
+ $X2=5.815 $Y2=2.295
r216 37 39 58.3064 $w=1.8e-07 $l=1.5e-07 $layer=POLY_cond $X=9.365 $Y=1.16
+ $X2=9.365 $Y2=1.31
r217 37 38 31.303 $w=1.8e-07 $l=7.5e-08 $layer=POLY_cond $X=9.365 $Y=1.16
+ $X2=9.365 $Y2=1.085
r218 33 40 18.8402 $w=1.65e-07 $l=8.21584e-08 $layer=POLY_cond $X=9.83 $Y=1.235
+ $X2=9.815 $Y2=1.31
r219 33 35 279.457 $w=1.5e-07 $l=5.45e-07 $layer=POLY_cond $X=9.83 $Y=1.235
+ $X2=9.83 $Y2=0.69
r220 30 32 159.06 $w=1.5e-07 $l=4.95e-07 $layer=POLY_cond $X=9.815 $Y=2.045
+ $X2=9.815 $Y2=2.54
r221 29 30 36.0588 $w=1.8e-07 $l=9e-08 $layer=POLY_cond $X=9.815 $Y=1.955
+ $X2=9.815 $Y2=2.045
r222 28 40 18.8402 $w=1.65e-07 $l=7.5e-08 $layer=POLY_cond $X=9.815 $Y=1.385
+ $X2=9.815 $Y2=1.31
r223 28 29 221.565 $w=1.8e-07 $l=5.7e-07 $layer=POLY_cond $X=9.815 $Y=1.385
+ $X2=9.815 $Y2=1.955
r224 27 39 7.1379 $w=1.5e-07 $l=9e-08 $layer=POLY_cond $X=9.455 $Y=1.31
+ $X2=9.365 $Y2=1.31
r225 26 40 6.66866 $w=1.5e-07 $l=9e-08 $layer=POLY_cond $X=9.725 $Y=1.31
+ $X2=9.815 $Y2=1.31
r226 26 27 138.447 $w=1.5e-07 $l=2.7e-07 $layer=POLY_cond $X=9.725 $Y=1.31
+ $X2=9.455 $Y2=1.31
r227 25 38 126.927 $w=1.5e-07 $l=3.95e-07 $layer=POLY_cond $X=9.38 $Y=0.69
+ $X2=9.38 $Y2=1.085
r228 20 22 159.06 $w=1.5e-07 $l=4.95e-07 $layer=POLY_cond $X=9.365 $Y=2.045
+ $X2=9.365 $Y2=2.54
r229 19 20 36.0588 $w=1.8e-07 $l=9e-08 $layer=POLY_cond $X=9.365 $Y=1.955
+ $X2=9.365 $Y2=2.045
r230 18 39 29.1532 $w=1.8e-07 $l=7.5e-08 $layer=POLY_cond $X=9.365 $Y=1.385
+ $X2=9.365 $Y2=1.31
r231 18 19 221.565 $w=1.8e-07 $l=5.7e-07 $layer=POLY_cond $X=9.365 $Y=1.385
+ $X2=9.365 $Y2=1.955
r232 17 78 21.2229 $w=1.5e-07 $l=1.65e-07 $layer=POLY_cond $X=8.86 $Y=1.16
+ $X2=8.695 $Y2=1.16
r233 16 37 7.1379 $w=1.5e-07 $l=9e-08 $layer=POLY_cond $X=9.275 $Y=1.16
+ $X2=9.365 $Y2=1.16
r234 16 17 212.798 $w=1.5e-07 $l=4.15e-07 $layer=POLY_cond $X=9.275 $Y=1.16
+ $X2=8.86 $Y2=1.16
r235 12 66 34.2249 $w=3.38e-07 $l=3.39411e-07 $layer=POLY_cond $X=7.76 $Y=1.16
+ $X2=7.52 $Y2=1.4
r236 12 14 297.404 $w=1.5e-07 $l=5.8e-07 $layer=POLY_cond $X=7.76 $Y=1.16
+ $X2=7.76 $Y2=0.58
r237 9 11 91.58 $w=1.5e-07 $l=2.85e-07 $layer=POLY_cond $X=7.435 $Y=2.24
+ $X2=7.435 $Y2=2.525
r238 8 9 36.0588 $w=1.8e-07 $l=9e-08 $layer=POLY_cond $X=7.435 $Y=2.15 $X2=7.435
+ $Y2=2.24
r239 7 73 17.4907 $w=1.8e-07 $l=2.4e-07 $layer=POLY_cond $X=7.435 $Y=1.64
+ $X2=7.435 $Y2=1.4
r240 7 8 198.242 $w=1.8e-07 $l=5.1e-07 $layer=POLY_cond $X=7.435 $Y=1.64
+ $X2=7.435 $Y2=2.15
r241 2 59 600 $w=1.7e-07 $l=2.82843e-07 $layer=licon1_PDIFF $count=1 $X=5.505
+ $Y=2.315 $X2=5.705 $Y2=2.515
r242 1 46 182 $w=1.7e-07 $l=7.4619e-07 $layer=licon1_NDIFF $count=1 $X=5.345
+ $Y=0.405 $X2=5.985 $Y2=0.635
.ends

.subckt PM_SKY130_FD_SC_HS__SDFSBP_2%SET_B 2 3 5 8 12 15 16 18 21 22 23 24 27 29
+ 32 33 35
c150 35 0 4.48044e-20 $X=8.06 $Y=1.715
c151 8 0 1.50114e-19 $X=8.15 $Y=0.58
r152 35 38 40.6903 $w=3.3e-07 $l=1.65e-07 $layer=POLY_cond $X=8.06 $Y=1.715
+ $X2=8.06 $Y2=1.88
r153 35 37 46.2115 $w=3.3e-07 $l=1.65e-07 $layer=POLY_cond $X=8.06 $Y=1.715
+ $X2=8.06 $Y2=1.55
r154 33 43 1.24963 $w=6.68e-07 $l=7e-08 $layer=LI1_cond $X=13.27 $Y=1.635
+ $X2=13.2 $Y2=1.635
r155 32 33 72.64 $w=1.7e-07 $l=3.4e-07 $layer=licon1_POLY $count=2 $X=13.27
+ $Y=1.465 $X2=13.27 $Y2=1.465
r156 29 43 9.3 $w=1.7e-07 $l=1.7e-07 $layer=mcon $count=1 $X=13.2 $Y=1.665
+ $X2=13.2 $Y2=1.665
r157 27 35 145.28 $w=1.7e-07 $l=1.7e-07 $layer=licon1_POLY $count=1 $X=8.06
+ $Y=1.715 $X2=8.06 $Y2=1.715
r158 26 27 9.3 $w=1.7e-07 $l=1.7e-07 $layer=mcon $count=1 $X=7.92 $Y=1.665
+ $X2=7.92 $Y2=1.665
r159 24 26 0.115467 $w=2.3e-07 $l=1.45e-07 $layer=MET1_cond $X=8.065 $Y=1.665
+ $X2=7.92 $Y2=1.665
r160 23 29 0.115467 $w=2.3e-07 $l=1.45e-07 $layer=MET1_cond $X=13.055 $Y=1.665
+ $X2=13.2 $Y2=1.665
r161 23 24 6.17573 $w=1.4e-07 $l=4.99e-06 $layer=MET1_cond $X=13.055 $Y=1.665
+ $X2=8.065 $Y2=1.665
r162 21 32 59.4528 $w=3.3e-07 $l=3.4e-07 $layer=POLY_cond $X=13.27 $Y=1.805
+ $X2=13.27 $Y2=1.465
r163 21 22 35.6818 $w=3.3e-07 $l=1.65e-07 $layer=POLY_cond $X=13.27 $Y=1.805
+ $X2=13.27 $Y2=1.97
r164 20 32 41.8716 $w=3.3e-07 $l=1.65e-07 $layer=POLY_cond $X=13.27 $Y=1.3
+ $X2=13.27 $Y2=1.465
r165 16 18 91.58 $w=1.5e-07 $l=2.85e-07 $layer=POLY_cond $X=13.25 $Y=2.465
+ $X2=13.25 $Y2=2.75
r166 15 16 36.0588 $w=1.8e-07 $l=9e-08 $layer=POLY_cond $X=13.25 $Y=2.375
+ $X2=13.25 $Y2=2.465
r167 15 22 157.427 $w=1.8e-07 $l=4.05e-07 $layer=POLY_cond $X=13.25 $Y=2.375
+ $X2=13.25 $Y2=1.97
r168 12 20 369.191 $w=1.5e-07 $l=7.2e-07 $layer=POLY_cond $X=13.21 $Y=0.58
+ $X2=13.21 $Y2=1.3
r169 8 37 497.383 $w=1.5e-07 $l=9.7e-07 $layer=POLY_cond $X=8.15 $Y=0.58
+ $X2=8.15 $Y2=1.55
r170 3 5 91.58 $w=1.5e-07 $l=2.85e-07 $layer=POLY_cond $X=7.985 $Y=2.24
+ $X2=7.985 $Y2=2.525
r171 2 3 36.0588 $w=1.8e-07 $l=9e-08 $layer=POLY_cond $X=7.985 $Y=2.15 $X2=7.985
+ $Y2=2.24
r172 2 38 104.952 $w=1.8e-07 $l=2.7e-07 $layer=POLY_cond $X=7.985 $Y=2.15
+ $X2=7.985 $Y2=1.88
.ends

.subckt PM_SKY130_FD_SC_HS__SDFSBP_2%A_619_368# 1 2 9 11 13 15 17 18 19 20 21 22
+ 24 25 26 27 29 30 33 34 36 37 38 39 41 42 45 46 47 48 49 50 52 54 55 56 57 58
+ 60 63 66 67 71 74 78 85 86 89 91
c276 78 0 1.49424e-19 $X=11.885 $Y=1.065
c277 71 0 1.34113e-19 $X=4.555 $Y=1.515
c278 60 0 1.33892e-19 $X=12.205 $Y=1.065
c279 49 0 1.00509e-19 $X=12.28 $Y=3.065
c280 42 0 7.33293e-20 $X=11.16 $Y=1.97
c281 22 0 9.15331e-20 $X=5.27 $Y=0.9
c282 18 0 1.10104e-19 $X=5.195 $Y=0.975
c283 17 0 9.36703e-20 $X=4.85 $Y=3.075
r284 89 95 18.3604 $w=3.3e-07 $l=1.05e-07 $layer=POLY_cond $X=8.9 $Y=1.795
+ $X2=8.795 $Y2=1.795
r285 88 91 8.58424 $w=2.73e-07 $l=1.65e-07 $layer=LI1_cond $X=8.9 $Y=1.822
+ $X2=9.065 $Y2=1.822
r286 88 89 145.28 $w=1.7e-07 $l=1.7e-07 $layer=licon1_POLY $count=1 $X=8.9
+ $Y=1.795 $X2=8.9 $Y2=1.795
r287 84 85 5.85433 $w=3.48e-07 $l=8.5e-08 $layer=LI1_cond $X=3.46 $Y=1.965
+ $X2=3.545 $Y2=1.965
r288 82 84 7.24393 $w=3.48e-07 $l=2.2e-07 $layer=LI1_cond $X=3.24 $Y=1.965
+ $X2=3.46 $Y2=1.965
r289 78 79 145.28 $w=1.7e-07 $l=1.7e-07 $layer=licon1_POLY $count=1 $X=11.885
+ $Y=1.065 $X2=11.885 $Y2=1.065
r290 76 78 22.1758 $w=3.28e-07 $l=6.35e-07 $layer=LI1_cond $X=11.885 $Y=1.7
+ $X2=11.885 $Y2=1.065
r291 74 76 7.76618 $w=1.7e-07 $l=2.03101e-07 $layer=LI1_cond $X=11.72 $Y=1.785
+ $X2=11.885 $Y2=1.7
r292 74 91 173.214 $w=1.68e-07 $l=2.655e-06 $layer=LI1_cond $X=11.72 $Y=1.785
+ $X2=9.065 $Y2=1.785
r293 71 72 145.28 $w=1.7e-07 $l=1.7e-07 $layer=licon1_POLY $count=1 $X=4.555
+ $Y=1.515 $X2=4.555 $Y2=1.515
r294 69 71 9.60369 $w=3.28e-07 $l=2.75e-07 $layer=LI1_cond $X=4.555 $Y=1.79
+ $X2=4.555 $Y2=1.515
r295 67 69 7.76618 $w=1.7e-07 $l=2.03101e-07 $layer=LI1_cond $X=4.39 $Y=1.875
+ $X2=4.555 $Y2=1.79
r296 67 85 55.1283 $w=1.68e-07 $l=8.45e-07 $layer=LI1_cond $X=4.39 $Y=1.875
+ $X2=3.545 $Y2=1.875
r297 66 84 4.974 $w=1.7e-07 $l=1.75e-07 $layer=LI1_cond $X=3.46 $Y=1.79 $X2=3.46
+ $Y2=1.965
r298 66 86 50.8877 $w=1.68e-07 $l=7.8e-07 $layer=LI1_cond $X=3.46 $Y=1.79
+ $X2=3.46 $Y2=1.01
r299 61 86 7.41084 $w=2.73e-07 $l=1.37e-07 $layer=LI1_cond $X=3.512 $Y=0.873
+ $X2=3.512 $Y2=1.01
r300 61 63 15.4218 $w=2.73e-07 $l=3.68e-07 $layer=LI1_cond $X=3.512 $Y=0.873
+ $X2=3.512 $Y2=0.505
r301 60 79 55.9556 $w=3.3e-07 $l=3.2e-07 $layer=POLY_cond $X=12.205 $Y=1.065
+ $X2=11.885 $Y2=1.065
r302 55 72 38.4695 $w=3.3e-07 $l=2.2e-07 $layer=POLY_cond $X=4.775 $Y=1.515
+ $X2=4.555 $Y2=1.515
r303 55 56 5.03009 $w=3.3e-07 $l=7.5e-08 $layer=POLY_cond $X=4.775 $Y=1.515
+ $X2=4.85 $Y2=1.515
r304 53 72 29.7264 $w=3.3e-07 $l=1.7e-07 $layer=POLY_cond $X=4.385 $Y=1.515
+ $X2=4.555 $Y2=1.515
r305 53 54 5.03009 $w=3.3e-07 $l=1.08995e-07 $layer=POLY_cond $X=4.385 $Y=1.515
+ $X2=4.295 $Y2=1.557
r306 50 60 41.2111 $w=2.18e-07 $l=1.98997e-07 $layer=POLY_cond $X=12.43 $Y=0.9
+ $X2=12.355 $Y2=1.065
r307 50 52 102.827 $w=1.5e-07 $l=3.2e-07 $layer=POLY_cond $X=12.43 $Y=0.9
+ $X2=12.43 $Y2=0.58
r308 48 60 41.2111 $w=2.18e-07 $l=1.98997e-07 $layer=POLY_cond $X=12.28 $Y=1.23
+ $X2=12.355 $Y2=1.065
r309 48 49 940.926 $w=1.5e-07 $l=1.835e-06 $layer=POLY_cond $X=12.28 $Y=1.23
+ $X2=12.28 $Y2=3.065
r310 46 49 26.9307 $w=1.5e-07 $l=1.06066e-07 $layer=POLY_cond $X=12.205 $Y=3.14
+ $X2=12.28 $Y2=3.065
r311 46 47 458.926 $w=1.5e-07 $l=8.95e-07 $layer=POLY_cond $X=12.205 $Y=3.14
+ $X2=11.31 $Y2=3.14
r312 45 47 26.9307 $w=1.5e-07 $l=1.06066e-07 $layer=POLY_cond $X=11.235 $Y=3.065
+ $X2=11.31 $Y2=3.14
r313 44 45 523.021 $w=1.5e-07 $l=1.02e-06 $layer=POLY_cond $X=11.235 $Y=2.045
+ $X2=11.235 $Y2=3.065
r314 43 58 20.4101 $w=1.5e-07 $l=7.5e-08 $layer=POLY_cond $X=10.79 $Y=1.97
+ $X2=10.715 $Y2=1.97
r315 42 44 26.9307 $w=1.5e-07 $l=1.06066e-07 $layer=POLY_cond $X=11.16 $Y=1.97
+ $X2=11.235 $Y2=2.045
r316 42 43 189.723 $w=1.5e-07 $l=3.7e-07 $layer=POLY_cond $X=11.16 $Y=1.97
+ $X2=10.79 $Y2=1.97
r317 39 58 5.30422 $w=1.5e-07 $l=7.5e-08 $layer=POLY_cond $X=10.715 $Y=2.045
+ $X2=10.715 $Y2=1.97
r318 39 41 159.06 $w=1.5e-07 $l=4.95e-07 $layer=POLY_cond $X=10.715 $Y=2.045
+ $X2=10.715 $Y2=2.54
r319 37 58 20.4101 $w=1.5e-07 $l=7.5e-08 $layer=POLY_cond $X=10.64 $Y=1.97
+ $X2=10.715 $Y2=1.97
r320 37 38 153.83 $w=1.5e-07 $l=3e-07 $layer=POLY_cond $X=10.64 $Y=1.97
+ $X2=10.34 $Y2=1.97
r321 34 38 26.9307 $w=1.5e-07 $l=1.06066e-07 $layer=POLY_cond $X=10.265 $Y=2.045
+ $X2=10.34 $Y2=1.97
r322 34 36 159.06 $w=1.5e-07 $l=4.95e-07 $layer=POLY_cond $X=10.265 $Y=2.045
+ $X2=10.265 $Y2=2.54
r323 32 95 21.2229 $w=1.5e-07 $l=1.65e-07 $layer=POLY_cond $X=8.795 $Y=1.96
+ $X2=8.795 $Y2=1.795
r324 32 33 571.734 $w=1.5e-07 $l=1.115e-06 $layer=POLY_cond $X=8.795 $Y=1.96
+ $X2=8.795 $Y2=3.075
r325 31 57 23.6879 $w=1.5e-07 $l=9e-08 $layer=POLY_cond $X=6.02 $Y=3.15 $X2=5.93
+ $Y2=3.15
r326 30 33 26.9307 $w=1.5e-07 $l=1.06066e-07 $layer=POLY_cond $X=8.72 $Y=3.15
+ $X2=8.795 $Y2=3.075
r327 30 31 1384.47 $w=1.5e-07 $l=2.7e-06 $layer=POLY_cond $X=8.72 $Y=3.15
+ $X2=6.02 $Y2=3.15
r328 27 29 91.58 $w=1.5e-07 $l=2.85e-07 $layer=POLY_cond $X=5.93 $Y=2.81
+ $X2=5.93 $Y2=2.525
r329 26 57 2.7459 $w=1.8e-07 $l=7.5e-08 $layer=POLY_cond $X=5.93 $Y=3.075
+ $X2=5.93 $Y2=3.15
r330 25 27 36.0588 $w=1.8e-07 $l=9e-08 $layer=POLY_cond $X=5.93 $Y=2.9 $X2=5.93
+ $Y2=2.81
r331 25 26 68.0242 $w=1.8e-07 $l=1.75e-07 $layer=POLY_cond $X=5.93 $Y=2.9
+ $X2=5.93 $Y2=3.075
r332 22 24 91.58 $w=1.5e-07 $l=2.85e-07 $layer=POLY_cond $X=5.27 $Y=0.9 $X2=5.27
+ $Y2=0.615
r333 20 57 23.6879 $w=1.5e-07 $l=9e-08 $layer=POLY_cond $X=5.84 $Y=3.15 $X2=5.93
+ $Y2=3.15