* File: sky130_fd_sc_hs__dfrbp_2.pex.spice
* Created: Thu Aug 27 20:38:22 2020
* Program "Calibre xRC"
* Version "v2018.4_34.26"
* Nominal Temperature: 27C
* Circuit Temperature: 27C
* 
.subckt PM_SKY130_FD_SC_HS__DFRBP_2%D 2 3 5 8 10 11 13 14 15 19
r34 19 20 72.64 $w=1.7e-07 $l=3.4e-07 $layer=licon1_POLY $count=2 $X=0.385
+ $Y=1.065 $X2=0.385 $Y2=1.065
r35 15 20 6.79646 $w=3.88e-07 $l=2.3e-07 $layer=LI1_cond $X=0.32 $Y=1.295
+ $X2=0.32 $Y2=1.065
r36 14 20 4.13697 $w=3.88e-07 $l=1.4e-07 $layer=LI1_cond $X=0.32 $Y=0.925
+ $X2=0.32 $Y2=1.065
r37 12 19 28.3893 $w=4.9e-07 $l=2.6e-07 $layer=POLY_cond $X=0.465 $Y=1.325
+ $X2=0.465 $Y2=1.065
r38 12 13 49.2579 $w=4.9e-07 $l=2.45e-07 $layer=POLY_cond $X=0.465 $Y=1.325
+ $X2=0.465 $Y2=1.57
r39 11 19 1.63785 $w=4.9e-07 $l=1.5e-08 $layer=POLY_cond $X=0.465 $Y=1.05
+ $X2=0.465 $Y2=1.065
r40 10 11 44.6155 $w=4.9e-07 $l=1.5e-07 $layer=POLY_cond $X=0.5 $Y=0.9 $X2=0.5
+ $Y2=1.05
r41 8 10 102.827 $w=1.5e-07 $l=3.2e-07 $layer=POLY_cond $X=0.705 $Y=0.58
+ $X2=0.705 $Y2=0.9
r42 3 5 91.58 $w=1.5e-07 $l=2.85e-07 $layer=POLY_cond $X=0.62 $Y=1.885 $X2=0.62
+ $Y2=2.17
r43 2 3 36.0588 $w=1.8e-07 $l=9e-08 $layer=POLY_cond $X=0.62 $Y=1.795 $X2=0.62
+ $Y2=1.885
r44 2 13 87.4597 $w=1.8e-07 $l=2.25e-07 $layer=POLY_cond $X=0.62 $Y=1.795
+ $X2=0.62 $Y2=1.57
.ends

.subckt PM_SKY130_FD_SC_HS__DFRBP_2%RESET_B 1 3 6 9 10 12 15 17 19 22 24 25 26
+ 27 33 36 40 42 43 48
c192 48 0 1.1019e-19 $X=9.705 $Y=1.615
c193 40 0 5.72834e-20 $X=1.115 $Y=1.615
c194 27 0 3.6858e-19 $X=2.785 $Y=1.665
c195 17 0 1.06861e-19 $X=9.77 $Y=1.87
r196 47 48 145.28 $w=1.7e-07 $l=1.7e-07 $layer=licon1_POLY $count=1 $X=9.705
+ $Y=1.615 $X2=9.705 $Y2=1.615
r197 42 45 40.6903 $w=3.3e-07 $l=1.65e-07 $layer=POLY_cond $X=2.55 $Y=1.61
+ $X2=2.55 $Y2=1.775
r198 42 44 46.2115 $w=3.3e-07 $l=1.65e-07 $layer=POLY_cond $X=2.55 $Y=1.61
+ $X2=2.55 $Y2=1.445
r199 42 43 145.28 $w=1.7e-07 $l=1.7e-07 $layer=licon1_POLY $count=1 $X=2.55
+ $Y=1.61 $X2=2.55 $Y2=1.61
r200 39 40 145.28 $w=1.7e-07 $l=1.7e-07 $layer=licon1_POLY $count=1 $X=1.115
+ $Y=1.615 $X2=1.115 $Y2=1.615
r201 36 43 9.3 $w=1.7e-07 $l=1.7e-07 $layer=mcon $count=1 $X=2.64 $Y=1.665
+ $X2=2.64 $Y2=1.665
r202 33 48 9.3 $w=1.7e-07 $l=1.7e-07 $layer=mcon $count=1 $X=9.84 $Y=1.665
+ $X2=9.84 $Y2=1.665
r203 29 40 9.3 $w=1.7e-07 $l=1.7e-07 $layer=mcon $count=1 $X=1.2 $Y=1.665
+ $X2=1.2 $Y2=1.665
r204 27 36 0.115467 $w=2.3e-07 $l=1.45e-07 $layer=MET1_cond $X=2.785 $Y=1.665
+ $X2=2.64 $Y2=1.665
r205 26 33 0.115467 $w=2.3e-07 $l=1.45e-07 $layer=MET1_cond $X=9.695 $Y=1.665
+ $X2=9.84 $Y2=1.665
r206 26 27 8.55196 $w=1.4e-07 $l=6.91e-06 $layer=MET1_cond $X=9.695 $Y=1.665
+ $X2=2.785 $Y2=1.665
r207 25 29 0.115467 $w=2.3e-07 $l=1.45e-07 $layer=MET1_cond $X=1.345 $Y=1.665
+ $X2=1.2 $Y2=1.665
r208 24 36 0.115467 $w=2.3e-07 $l=1.45e-07 $layer=MET1_cond $X=2.495 $Y=1.665
+ $X2=2.64 $Y2=1.665
r209 24 25 1.42326 $w=1.4e-07 $l=1.15e-06 $layer=MET1_cond $X=2.495 $Y=1.665
+ $X2=1.345 $Y2=1.665
r210 20 47 38.5662 $w=2.97e-07 $l=2.05122e-07 $layer=POLY_cond $X=9.795 $Y=1.45
+ $X2=9.705 $Y2=1.615
r211 20 22 446.106 $w=1.5e-07 $l=8.7e-07 $layer=POLY_cond $X=9.795 $Y=1.45
+ $X2=9.795 $Y2=0.58
r212 17 47 53.1722 $w=2.97e-07 $l=2.85657e-07 $layer=POLY_cond $X=9.77 $Y=1.87
+ $X2=9.705 $Y2=1.615
r213 17 19 91.58 $w=1.5e-07 $l=2.85e-07 $layer=POLY_cond $X=9.77 $Y=1.87
+ $X2=9.77 $Y2=2.155
r214 15 44 425.596 $w=1.5e-07 $l=8.3e-07 $layer=POLY_cond $X=2.605 $Y=0.615
+ $X2=2.605 $Y2=1.445
r215 10 12 91.58 $w=1.5e-07 $l=2.85e-07 $layer=POLY_cond $X=2.575 $Y=2.35
+ $X2=2.575 $Y2=2.635
r216 9 10 36.0588 $w=1.8e-07 $l=9e-08 $layer=POLY_cond $X=2.575 $Y=2.26
+ $X2=2.575 $Y2=2.35
r217 9 45 188.524 $w=1.8e-07 $l=4.85e-07 $layer=POLY_cond $X=2.575 $Y=2.26
+ $X2=2.575 $Y2=1.775
r218 4 39 38.5916 $w=2.93e-07 $l=1.74714e-07 $layer=POLY_cond $X=1.095 $Y=1.45
+ $X2=1.115 $Y2=1.615
r219 4 6 446.106 $w=1.5e-07 $l=8.7e-07 $layer=POLY_cond $X=1.095 $Y=1.45
+ $X2=1.095 $Y2=0.58
r220 1 39 55.8646 $w=2.93e-07 $l=2.91633e-07 $layer=POLY_cond $X=1.07 $Y=1.885
+ $X2=1.115 $Y2=1.615
r221 1 3 91.58 $w=1.5e-07 $l=2.85e-07 $layer=POLY_cond $X=1.07 $Y=1.885 $X2=1.07
+ $Y2=2.17
.ends

.subckt PM_SKY130_FD_SC_HS__DFRBP_2%A_298_294# 1 2 3 10 12 15 18 21 22 26 28 29
+ 32 35 39 41
c109 41 0 1.97119e-19 $X=4.05 $Y=1.44
c110 22 0 3.04161e-20 $X=1.99 $Y=1.635
c111 15 0 5.72834e-20 $X=1.595 $Y=0.74
r112 41 43 7.89247 $w=2.48e-07 $l=1.7e-07 $layer=LI1_cond $X=4.01 $Y=1.44
+ $X2=4.01 $Y2=1.61
r113 35 39 3.32435 $w=2.82e-07 $l=1.05924e-07 $layer=LI1_cond $X=4.002 $Y=1.945
+ $X2=3.955 $Y2=2.03
r114 35 43 16.4284 $w=2.33e-07 $l=3.35e-07 $layer=LI1_cond $X=4.002 $Y=1.945
+ $X2=4.002 $Y2=1.61
r115 30 39 3.32435 $w=2.82e-07 $l=8.5e-08 $layer=LI1_cond $X=3.955 $Y=2.115
+ $X2=3.955 $Y2=2.03
r116 30 32 15.8897 $w=3.28e-07 $l=4.55e-07 $layer=LI1_cond $X=3.955 $Y=2.115
+ $X2=3.955 $Y2=2.57
r117 28 39 3.22099 $w=1.7e-07 $l=1.65e-07 $layer=LI1_cond $X=3.79 $Y=2.03
+ $X2=3.955 $Y2=2.03
r118 28 29 88.4011 $w=1.68e-07 $l=1.355e-06 $layer=LI1_cond $X=3.79 $Y=2.03
+ $X2=2.435 $Y2=2.03
r119 24 29 8.15508 $w=1.68e-07 $l=1.25e-07 $layer=LI1_cond $X=2.31 $Y=2.03
+ $X2=2.435 $Y2=2.03
r120 24 26 20.9745 $w=2.48e-07 $l=4.55e-07 $layer=LI1_cond $X=2.31 $Y=2.115
+ $X2=2.31 $Y2=2.57
r121 21 22 145.28 $w=1.7e-07 $l=1.7e-07 $layer=licon1_POLY $count=1 $X=1.99
+ $Y=1.635 $X2=1.99 $Y2=1.635
r122 19 24 20.877 $w=1.68e-07 $l=3.2e-07 $layer=LI1_cond $X=1.99 $Y=2.03
+ $X2=2.31 $Y2=2.03
r123 19 21 10.826 $w=3.28e-07 $l=3.1e-07 $layer=LI1_cond $X=1.99 $Y=1.945
+ $X2=1.99 $Y2=1.635
r124 17 22 55.9556 $w=3.3e-07 $l=3.2e-07 $layer=POLY_cond $X=1.67 $Y=1.635
+ $X2=1.99 $Y2=1.635
r125 17 18 5.03009 $w=3.3e-07 $l=1.08995e-07 $layer=POLY_cond $X=1.67 $Y=1.635
+ $X2=1.58 $Y2=1.677
r126 13 18 37.0704 $w=1.5e-07 $l=2.14369e-07 $layer=POLY_cond $X=1.595 $Y=1.47
+ $X2=1.58 $Y2=1.677
r127 13 15 374.319 $w=1.5e-07 $l=7.3e-07 $layer=POLY_cond $X=1.595 $Y=1.47
+ $X2=1.595 $Y2=0.74
r128 10 18 37.0704 $w=1.5e-07 $l=2.08e-07 $layer=POLY_cond $X=1.58 $Y=1.885
+ $X2=1.58 $Y2=1.677
r129 10 12 184.767 $w=1.5e-07 $l=5.75e-07 $layer=POLY_cond $X=1.58 $Y=1.885
+ $X2=1.58 $Y2=2.46
r130 3 32 600 $w=1.7e-07 $l=2.10357e-07 $layer=licon1_PDIFF $count=1 $X=3.805
+ $Y=2.425 $X2=3.955 $Y2=2.57
r131 2 26 600 $w=1.7e-07 $l=1.99687e-07 $layer=licon1_PDIFF $count=1 $X=2.22
+ $Y=2.425 $X2=2.35 $Y2=2.57
r132 1 41 182 $w=1.7e-07 $l=3.42929e-07 $layer=licon1_NDIFF $count=1 $X=3.91
+ $Y=1.16 $X2=4.05 $Y2=1.44
.ends

.subckt PM_SKY130_FD_SC_HS__DFRBP_2%A_331_392# 1 2 3 4 15 17 19 20 22 23 24 26
+ 29 31 33 35 38 39 40 42 44 45 46 48 49 50 52 55 57 58 61 63 65 70 73 77
c228 77 0 1.92736e-19 $X=3.34 $Y=1.68
c229 61 0 6.79844e-20 $X=7.795 $Y=2.09
c230 57 0 1.4118e-19 $X=7.71 $Y=1.44
c231 52 0 8.33581e-20 $X=7.3 $Y=1.355
c232 42 0 1.45428e-19 $X=3.01 $Y=1.555
r233 71 77 43.7153 $w=3.3e-07 $l=2.5e-07 $layer=POLY_cond $X=3.09 $Y=1.68
+ $X2=3.34 $Y2=1.68
r234 71 74 10.4917 $w=3.3e-07 $l=6e-08 $layer=POLY_cond $X=3.09 $Y=1.68 $X2=3.03
+ $Y2=1.68
r235 70 71 145.28 $w=1.7e-07 $l=1.7e-07 $layer=licon1_POLY $count=1 $X=3.09
+ $Y=1.68 $X2=3.09 $Y2=1.68
r236 67 70 4.1907 $w=2.18e-07 $l=8e-08 $layer=LI1_cond $X=3.01 $Y=1.665 $X2=3.09
+ $Y2=1.665
r237 64 65 14.3529 $w=1.68e-07 $l=2.2e-07 $layer=LI1_cond $X=2.79 $Y=1.1
+ $X2=3.01 $Y2=1.1
r238 59 61 36.861 $w=1.68e-07 $l=5.65e-07 $layer=LI1_cond $X=7.795 $Y=1.525
+ $X2=7.795 $Y2=2.09
r239 57 59 6.81649 $w=1.7e-07 $l=1.20208e-07 $layer=LI1_cond $X=7.71 $Y=1.44
+ $X2=7.795 $Y2=1.525
r240 57 58 21.2032 $w=1.68e-07 $l=3.25e-07 $layer=LI1_cond $X=7.71 $Y=1.44
+ $X2=7.385 $Y2=1.44
r241 53 73 5.16603 $w=1.7e-07 $l=8.5e-08 $layer=LI1_cond $X=7.385 $Y=0.34
+ $X2=7.3 $Y2=0.34
r242 53 55 80.246 $w=1.68e-07 $l=1.23e-06 $layer=LI1_cond $X=7.385 $Y=0.34
+ $X2=8.615 $Y2=0.34
r243 52 58 6.81649 $w=1.7e-07 $l=1.20208e-07 $layer=LI1_cond $X=7.3 $Y=1.355
+ $X2=7.385 $Y2=1.44
r244 51 73 1.34256 $w=1.7e-07 $l=8.5e-08 $layer=LI1_cond $X=7.3 $Y=0.425 $X2=7.3
+ $Y2=0.34
r245 51 52 60.6738 $w=1.68e-07 $l=9.3e-07 $layer=LI1_cond $X=7.3 $Y=0.425
+ $X2=7.3 $Y2=1.355
r246 49 73 5.16603 $w=1.7e-07 $l=8.5e-08 $layer=LI1_cond $X=7.215 $Y=0.34
+ $X2=7.3 $Y2=0.34
r247 49 50 66.5455 $w=1.68e-07 $l=1.02e-06 $layer=LI1_cond $X=7.215 $Y=0.34
+ $X2=6.195 $Y2=0.34
r248 47 50 6.81649 $w=1.7e-07 $l=1.20208e-07 $layer=LI1_cond $X=6.11 $Y=0.425
+ $X2=6.195 $Y2=0.34
r249 47 48 15.3316 $w=1.68e-07 $l=2.35e-07 $layer=LI1_cond $X=6.11 $Y=0.425
+ $X2=6.11 $Y2=0.66
r250 45 48 6.81649 $w=1.7e-07 $l=1.20208e-07 $layer=LI1_cond $X=6.025 $Y=0.745
+ $X2=6.11 $Y2=0.66
r251 45 46 51.5401 $w=1.68e-07 $l=7.9e-07 $layer=LI1_cond $X=6.025 $Y=0.745
+ $X2=5.235 $Y2=0.745
r252 44 46 6.81649 $w=1.7e-07 $l=1.20208e-07 $layer=LI1_cond $X=5.15 $Y=0.66
+ $X2=5.235 $Y2=0.745
r253 43 44 15.3316 $w=1.68e-07 $l=2.35e-07 $layer=LI1_cond $X=5.15 $Y=0.425
+ $X2=5.15 $Y2=0.66
r254 42 67 2.2496 $w=1.7e-07 $l=1.1e-07 $layer=LI1_cond $X=3.01 $Y=1.555
+ $X2=3.01 $Y2=1.665
r255 41 65 0.716491 $w=1.7e-07 $l=8.5e-08 $layer=LI1_cond $X=3.01 $Y=1.185
+ $X2=3.01 $Y2=1.1
r256 41 42 24.139 $w=1.68e-07 $l=3.7e-07 $layer=LI1_cond $X=3.01 $Y=1.185
+ $X2=3.01 $Y2=1.555
r257 39 43 6.81649 $w=1.7e-07 $l=1.20208e-07 $layer=LI1_cond $X=5.065 $Y=0.34
+ $X2=5.15 $Y2=0.425
r258 39 40 142.877 $w=1.68e-07 $l=2.19e-06 $layer=LI1_cond $X=5.065 $Y=0.34
+ $X2=2.875 $Y2=0.34
r259 38 64 0.716491 $w=1.7e-07 $l=8.5e-08 $layer=LI1_cond $X=2.79 $Y=1.015
+ $X2=2.79 $Y2=1.1
r260 37 40 6.81649 $w=1.7e-07 $l=1.20208e-07 $layer=LI1_cond $X=2.79 $Y=0.425
+ $X2=2.875 $Y2=0.34
r261 37 38 38.492 $w=1.68e-07 $l=5.9e-07 $layer=LI1_cond $X=2.79 $Y=0.425
+ $X2=2.79 $Y2=1.015
r262 36 63 2.76166 $w=1.7e-07 $l=2.45e-07 $layer=LI1_cond $X=1.975 $Y=1.1
+ $X2=1.73 $Y2=1.1
r263 35 64 5.54545 $w=1.68e-07 $l=8.5e-08 $layer=LI1_cond $X=2.705 $Y=1.1
+ $X2=2.79 $Y2=1.1
r264 35 36 47.6257 $w=1.68e-07 $l=7.3e-07 $layer=LI1_cond $X=2.705 $Y=1.1
+ $X2=1.975 $Y2=1.1
r265 31 33 9.7861 $w=1.68e-07 $l=1.5e-07 $layer=LI1_cond $X=1.655 $Y=2.37
+ $X2=1.805 $Y2=2.37
r266 27 63 3.70735 $w=2.5e-07 $l=1.18427e-07 $layer=LI1_cond $X=1.81 $Y=1.015
+ $X2=1.73 $Y2=1.1
r267 27 29 17.4613 $w=3.28e-07 $l=5e-07 $layer=LI1_cond $X=1.81 $Y=1.015
+ $X2=1.81 $Y2=0.515
r268 26 31 6.81649 $w=1.7e-07 $l=1.20208e-07 $layer=LI1_cond $X=1.57 $Y=2.285
+ $X2=1.655 $Y2=2.37
r269 25 63 3.70735 $w=2.5e-07 $l=1.9799e-07 $layer=LI1_cond $X=1.57 $Y=1.185
+ $X2=1.73 $Y2=1.1
r270 25 26 71.7647 $w=1.68e-07 $l=1.1e-06 $layer=LI1_cond $X=1.57 $Y=1.185
+ $X2=1.57 $Y2=2.285
r271 23 24 55.4135 $w=1.85e-07 $l=1.5e-07 $layer=POLY_cond $X=3.012 $Y=0.9
+ $X2=3.012 $Y2=1.05
r272 20 22 91.58 $w=1.5e-07 $l=2.85e-07 $layer=POLY_cond $X=3.34 $Y=2.35
+ $X2=3.34 $Y2=2.635
r273 19 20 36.0588 $w=1.8e-07 $l=9e-08 $layer=POLY_cond $X=3.34 $Y=2.26 $X2=3.34
+ $Y2=2.35
r274 18 77 16.9318 $w=1.8e-07 $l=1.65e-07 $layer=POLY_cond $X=3.34 $Y=1.845
+ $X2=3.34 $Y2=1.68
r275 18 19 161.315 $w=1.8e-07 $l=4.15e-07 $layer=POLY_cond $X=3.34 $Y=1.845
+ $X2=3.34 $Y2=2.26
r276 17 74 21.2229 $w=1.5e-07 $l=1.65e-07 $layer=POLY_cond $X=3.03 $Y=1.515
+ $X2=3.03 $Y2=1.68
r277 17 24 238.436 $w=1.5e-07 $l=4.65e-07 $layer=POLY_cond $X=3.03 $Y=1.515
+ $X2=3.03 $Y2=1.05
r278 15 23 91.58 $w=1.5e-07 $l=2.85e-07 $layer=POLY_cond $X=2.995 $Y=0.615
+ $X2=2.995 $Y2=0.9
r279 4 61 300 $w=1.7e-07 $l=1.99687e-07 $layer=licon1_PDIFF $count=2 $X=7.665
+ $Y=1.945 $X2=7.795 $Y2=2.09
r280 3 33 600 $w=1.7e-07 $l=4.79166e-07 $layer=licon1_PDIFF $count=1 $X=1.655
+ $Y=1.96 $X2=1.805 $Y2=2.37
r281 2 55 182 $w=1.7e-07 $l=2.48898e-07 $layer=licon1_NDIFF $count=1 $X=8.405
+ $Y=0.425 $X2=8.615 $Y2=0.34
r282 1 29 91 $w=1.7e-07 $l=2.03286e-07 $layer=licon1_NDIFF $count=2 $X=1.67
+ $Y=0.37 $X2=1.81 $Y2=0.515
.ends

.subckt PM_SKY130_FD_SC_HS__DFRBP_2%A_818_418# 1 2 7 9 12 16 18 20 21 23 25 26
+ 31 34 37 39 42 43 44 46 48 49 54 56 60 61
c158 61 0 2.09165e-19 $X=8.455 $Y=1.44
c159 21 0 7.84587e-20 $X=8.7 $Y=1.87
c160 12 0 1.97119e-19 $X=4.265 $Y=1.37
r161 61 67 37.1352 $w=3.18e-07 $l=2.45e-07 $layer=POLY_cond $X=8.455 $Y=1.44
+ $X2=8.7 $Y2=1.44
r162 61 65 18.9465 $w=3.18e-07 $l=1.25e-07 $layer=POLY_cond $X=8.455 $Y=1.44
+ $X2=8.33 $Y2=1.44
r163 60 61 145.28 $w=1.7e-07 $l=1.7e-07 $layer=licon1_POLY $count=1 $X=8.455
+ $Y=1.44 $X2=8.455 $Y2=1.44
r164 57 60 11.1752 $w=3.28e-07 $l=3.2e-07 $layer=LI1_cond $X=8.135 $Y=1.44
+ $X2=8.455 $Y2=1.44
r165 52 54 0.432166 $w=3.98e-07 $l=1.5e-08 $layer=LI1_cond $X=5.605 $Y=2.04
+ $X2=5.62 $Y2=2.04
r166 51 52 9.93982 $w=3.98e-07 $l=3.45e-07 $layer=LI1_cond $X=5.26 $Y=2.04
+ $X2=5.605 $Y2=2.04
r167 48 51 3.16922 $w=3.98e-07 $l=1.1e-07 $layer=LI1_cond $X=5.15 $Y=2.04
+ $X2=5.26 $Y2=2.04
r168 48 49 72.64 $w=1.7e-07 $l=3.4e-07 $layer=licon1_POLY $count=2 $X=5.15
+ $Y=2.075 $X2=5.15 $Y2=2.075
r169 45 57 4.62375 $w=1.7e-07 $l=1.65e-07 $layer=LI1_cond $X=8.135 $Y=1.605
+ $X2=8.135 $Y2=1.44
r170 45 46 84.8128 $w=1.68e-07 $l=1.3e-06 $layer=LI1_cond $X=8.135 $Y=1.605
+ $X2=8.135 $Y2=2.905
r171 43 46 6.81649 $w=1.7e-07 $l=1.20208e-07 $layer=LI1_cond $X=8.05 $Y=2.99
+ $X2=8.135 $Y2=2.905
r172 43 44 35.5561 $w=1.68e-07 $l=5.45e-07 $layer=LI1_cond $X=8.05 $Y=2.99
+ $X2=7.505 $Y2=2.99
r173 42 44 6.84389 $w=1.7e-07 $l=1.30767e-07 $layer=LI1_cond $X=7.41 $Y=2.905
+ $X2=7.505 $Y2=2.99
r174 41 42 18.0957 $w=1.88e-07 $l=3.1e-07 $layer=LI1_cond $X=7.41 $Y=2.595
+ $X2=7.41 $Y2=2.905
r175 40 56 4.14084 $w=1.7e-07 $l=1.8e-07 $layer=LI1_cond $X=5.785 $Y=2.51
+ $X2=5.605 $Y2=2.51
r176 39 41 6.84389 $w=1.7e-07 $l=1.30767e-07 $layer=LI1_cond $X=7.315 $Y=2.51
+ $X2=7.41 $Y2=2.595
r177 39 40 99.8182 $w=1.68e-07 $l=1.53e-06 $layer=LI1_cond $X=7.315 $Y=2.51
+ $X2=5.785 $Y2=2.51
r178 35 56 2.66603 $w=3.6e-07 $l=8.5e-08 $layer=LI1_cond $X=5.605 $Y=2.595
+ $X2=5.605 $Y2=2.51
r179 35 37 7.04271 $w=3.58e-07 $l=2.2e-07 $layer=LI1_cond $X=5.605 $Y=2.595
+ $X2=5.605 $Y2=2.815
r180 34 56 2.66603 $w=3.6e-07 $l=8.5e-08 $layer=LI1_cond $X=5.605 $Y=2.425
+ $X2=5.605 $Y2=2.51
r181 33 52 1.35108 $w=3.6e-07 $l=2e-07 $layer=LI1_cond $X=5.605 $Y=2.24
+ $X2=5.605 $Y2=2.04
r182 33 34 5.92228 $w=3.58e-07 $l=1.85e-07 $layer=LI1_cond $X=5.605 $Y=2.24
+ $X2=5.605 $Y2=2.425
r183 29 51 1.86583 $w=3.3e-07 $l=2e-07 $layer=LI1_cond $X=5.26 $Y=1.84 $X2=5.26
+ $Y2=2.04
r184 29 31 26.3665 $w=3.28e-07 $l=7.55e-07 $layer=LI1_cond $X=5.26 $Y=1.84
+ $X2=5.26 $Y2=1.085
r185 25 49 59.4528 $w=3.3e-07 $l=3.4e-07 $layer=POLY_cond $X=4.81 $Y=2.075
+ $X2=5.15 $Y2=2.075
r186 25 26 46.2115 $w=3.3e-07 $l=1.65e-07 $layer=POLY_cond $X=4.81 $Y=2.075
+ $X2=4.645 $Y2=2.075
r187 21 23 91.58 $w=1.5e-07 $l=2.85e-07 $layer=POLY_cond $X=8.7 $Y=1.87 $X2=8.7
+ $Y2=2.155
r188 20 21 36.0588 $w=1.8e-07 $l=9e-08 $layer=POLY_cond $X=8.7 $Y=1.78 $X2=8.7
+ $Y2=1.87
r189 19 67 16.0701 $w=1.8e-07 $l=1.65e-07 $layer=POLY_cond $X=8.7 $Y=1.605
+ $X2=8.7 $Y2=1.44
r190 19 20 68.0242 $w=1.8e-07 $l=1.75e-07 $layer=POLY_cond $X=8.7 $Y=1.605
+ $X2=8.7 $Y2=1.78
r191 16 65 20.3436 $w=1.5e-07 $l=1.65e-07 $layer=POLY_cond $X=8.33 $Y=1.275
+ $X2=8.33 $Y2=1.44
r192 16 18 154.24 $w=1.5e-07 $l=4.8e-07 $layer=POLY_cond $X=8.33 $Y=1.275
+ $X2=8.33 $Y2=0.795
r193 15 24 11.7719 $w=1.5e-07 $l=1.25e-07 $layer=POLY_cond $X=4.34 $Y=2.165
+ $X2=4.215 $Y2=2.165
r194 15 26 156.394 $w=1.5e-07 $l=3.05e-07 $layer=POLY_cond $X=4.34 $Y=2.165
+ $X2=4.645 $Y2=2.165
r195 10 24 21.3434 $w=2.2e-07 $l=9.68246e-08 $layer=POLY_cond $X=4.265 $Y=2.09
+ $X2=4.215 $Y2=2.165
r196 10 12 369.191 $w=1.5e-07 $l=7.2e-07 $layer=POLY_cond $X=4.265 $Y=2.09
+ $X2=4.265 $Y2=1.37
r197 7 24 45.4434 $w=2.2e-07 $l=2.01742e-07 $layer=POLY_cond $X=4.18 $Y=2.35
+ $X2=4.215 $Y2=2.165
r198 7 9 91.58 $w=1.5e-07 $l=2.85e-07 $layer=POLY_cond $X=4.18 $Y=2.35 $X2=4.18
+ $Y2=2.635
r199 2 54 400 $w=1.7e-07 $l=2.26164e-07 $layer=licon1_PDIFF $count=1 $X=5.475
+ $Y=1.84 $X2=5.62 $Y2=2.005
r200 2 37 400 $w=1.7e-07 $l=1.04499e-06 $layer=licon1_PDIFF $count=1 $X=5.475
+ $Y=1.84 $X2=5.62 $Y2=2.815
r201 1 31 182 $w=1.7e-07 $l=6.56791e-07 $layer=licon1_NDIFF $count=1 $X=5.13
+ $Y=0.49 $X2=5.26 $Y2=1.085
.ends

.subckt PM_SKY130_FD_SC_HS__DFRBP_2%A_728_331# 1 2 8 9 11 15 16 17 21 22 24 25
+ 29 31 33 35 37 42 44 46 49 53 56 61 65 66 68 70
c169 46 0 9.04021e-20 $X=6.45 $Y=1.34
c170 37 0 1.43431e-19 $X=8.02 $Y=1.795
c171 31 0 4.95819e-20 $X=8.02 $Y=1.87
c172 8 0 1.97872e-19 $X=3.73 $Y=2.26
r173 67 68 51.1003 $w=3.49e-07 $l=3.7e-07 $layer=POLY_cond $X=5.475 $Y=1.552
+ $X2=5.845 $Y2=1.552
r174 64 66 5.09823 $w=4.13e-07 $l=1.65e-07 $layer=LI1_cond $X=6.87 $Y=2.047
+ $X2=7.035 $Y2=2.047
r175 64 65 5.09823 $w=4.13e-07 $l=1.65e-07 $layer=LI1_cond $X=6.87 $Y=2.047
+ $X2=6.705 $Y2=2.047
r176 58 61 12.0483 $w=3.28e-07 $l=3.45e-07 $layer=LI1_cond $X=6.45 $Y=0.8
+ $X2=6.795 $Y2=0.8
r177 55 56 9.42908 $w=3.28e-07 $l=2.7e-07 $layer=LI1_cond $X=6.18 $Y=1.505
+ $X2=6.45 $Y2=1.505
r178 54 68 35.2178 $w=3.49e-07 $l=2.55e-07 $layer=POLY_cond $X=6.1 $Y=1.552
+ $X2=5.845 $Y2=1.552
r179 53 55 2.7938 $w=3.28e-07 $l=8e-08 $layer=LI1_cond $X=6.1 $Y=1.505 $X2=6.18
+ $Y2=1.505
r180 53 54 72.64 $w=1.7e-07 $l=3.4e-07 $layer=licon1_POLY $count=2 $X=6.1
+ $Y=1.505 $X2=6.1 $Y2=1.505
r181 50 70 36.7209 $w=3.3e-07 $l=2.1e-07 $layer=POLY_cond $X=7.34 $Y=2.005
+ $X2=7.34 $Y2=1.795
r182 49 66 10.6514 $w=3.28e-07 $l=3.05e-07 $layer=LI1_cond $X=7.34 $Y=2.005
+ $X2=7.035 $Y2=2.005
r183 49 50 145.28 $w=1.7e-07 $l=1.7e-07 $layer=licon1_POLY $count=1 $X=7.34
+ $Y=2.005 $X2=7.34 $Y2=2.005
r184 46 56 4.62375 $w=1.7e-07 $l=1.65e-07 $layer=LI1_cond $X=6.45 $Y=1.34
+ $X2=6.45 $Y2=1.505
r185 45 58 4.62375 $w=1.7e-07 $l=1.65e-07 $layer=LI1_cond $X=6.45 $Y=0.965
+ $X2=6.45 $Y2=0.8
r186 45 46 24.4652 $w=1.68e-07 $l=3.75e-07 $layer=LI1_cond $X=6.45 $Y=0.965
+ $X2=6.45 $Y2=1.34
r187 44 65 15.3659 $w=3.28e-07 $l=4.4e-07 $layer=LI1_cond $X=6.265 $Y=2.005
+ $X2=6.705 $Y2=2.005
r188 42 44 7.76618 $w=3.3e-07 $l=2.03101e-07 $layer=LI1_cond $X=6.18 $Y=1.84
+ $X2=6.265 $Y2=2.005
r189 41 55 4.62375 $w=1.7e-07 $l=1.65e-07 $layer=LI1_cond $X=6.18 $Y=1.67
+ $X2=6.18 $Y2=1.505
r190 41 42 11.0909 $w=1.68e-07 $l=1.7e-07 $layer=LI1_cond $X=6.18 $Y=1.67
+ $X2=6.18 $Y2=1.84
r191 36 37 84.6064 $w=1.5e-07 $l=1.65e-07 $layer=POLY_cond $X=7.855 $Y=1.795
+ $X2=8.02 $Y2=1.795
r192 34 35 60.4563 $w=1.8e-07 $l=1.5e-07 $layer=POLY_cond $X=3.775 $Y=1.655
+ $X2=3.775 $Y2=1.805
r193 31 37 2.83073 $w=1.5e-07 $l=7.5e-08 $layer=POLY_cond $X=8.02 $Y=1.87
+ $X2=8.02 $Y2=1.795
r194 31 33 184.767 $w=1.5e-07 $l=5.75e-07 $layer=POLY_cond $X=8.02 $Y=1.87
+ $X2=8.02 $Y2=2.445
r195 27 36 2.83073 $w=1.5e-07 $l=7.5e-08 $layer=POLY_cond $X=7.855 $Y=1.72
+ $X2=7.855 $Y2=1.795
r196 27 29 392.266 $w=1.5e-07 $l=7.65e-07 $layer=POLY_cond $X=7.855 $Y=1.72
+ $X2=7.855 $Y2=0.955
r197 26 70 21.2229 $w=1.5e-07 $l=1.65e-07 $layer=POLY_cond $X=7.505 $Y=1.795
+ $X2=7.34 $Y2=1.795
r198 25 36 38.4574 $w=1.5e-07 $l=7.5e-08 $layer=POLY_cond $X=7.78 $Y=1.795
+ $X2=7.855 $Y2=1.795
r199 25 26 141.011 $w=1.5e-07 $l=2.75e-07 $layer=POLY_cond $X=7.78 $Y=1.795
+ $X2=7.505 $Y2=1.795
r200 22 68 22.56 $w=1.5e-07 $l=2.13e-07 $layer=POLY_cond $X=5.845 $Y=1.765
+ $X2=5.845 $Y2=1.552
r201 22 24 204.047 $w=1.5e-07 $l=6.35e-07 $layer=POLY_cond $X=5.845 $Y=1.765
+ $X2=5.845 $Y2=2.4
r202 19 67 22.56 $w=1.5e-07 $l=2.12e-07 $layer=POLY_cond $X=5.475 $Y=1.34
+ $X2=5.475 $Y2=1.552
r203 19 21 246.128 $w=1.5e-07 $l=4.8e-07 $layer=POLY_cond $X=5.475 $Y=1.34
+ $X2=5.475 $Y2=0.86
r204 18 21 228.181 $w=1.5e-07 $l=4.45e-07 $layer=POLY_cond $X=5.475 $Y=0.415
+ $X2=5.475 $Y2=0.86
r205 16 18 26.9307 $w=1.5e-07 $l=1.06066e-07 $layer=POLY_cond $X=5.4 $Y=0.34
+ $X2=5.475 $Y2=0.415
r206 16 17 764.021 $w=1.5e-07 $l=1.49e-06 $layer=POLY_cond $X=5.4 $Y=0.34
+ $X2=3.91 $Y2=0.34
r207 15 34 146.138 $w=1.5e-07 $l=2.85e-07 $layer=POLY_cond $X=3.835 $Y=1.37
+ $X2=3.835 $Y2=1.655
r208 12 17 26.9307 $w=1.5e-07 $l=1.06066e-07 $layer=POLY_cond $X=3.835 $Y=0.415
+ $X2=3.91 $Y2=0.34
r209 12 15 489.691 $w=1.5e-07 $l=9.55e-07 $layer=POLY_cond $X=3.835 $Y=0.415
+ $X2=3.835 $Y2=1.37
r210 9 11 91.58 $w=1.5e-07 $l=2.85e-07 $layer=POLY_cond $X=3.73 $Y=2.35 $X2=3.73
+ $Y2=2.635
r211 8 9 36.0588 $w=1.8e-07 $l=9e-08 $layer=POLY_cond $X=3.73 $Y=2.26 $X2=3.73
+ $Y2=2.35
r212 8 35 176.863 $w=1.8e-07 $l=4.55e-07 $layer=POLY_cond $X=3.73 $Y=2.26
+ $X2=3.73 $Y2=1.805
r213 2 64 600 $w=1.7e-07 $l=2.69768e-07 $layer=licon1_PDIFF $count=1 $X=6.72
+ $Y=1.84 $X2=6.87 $Y2=2.045
r214 1 61 182 $w=1.7e-07 $l=3.73497e-07 $layer=licon1_NDIFF $count=1 $X=6.655
+ $Y=0.49 $X2=6.795 $Y2=0.8
.ends

.subckt PM_SKY130_FD_SC_HS__DFRBP_2%CLK 1 3 4 6 7
c39 4 0 1.7376e-19 $X=6.645 $Y=1.765
r40 10 11 145.28 $w=1.7e-07 $l=1.7e-07 $layer=licon1_POLY $count=1 $X=6.8
+ $Y=1.505 $X2=6.8 $Y2=1.505
r41 7 11 7.11803 $w=3.38e-07 $l=2.1e-07 $layer=LI1_cond $X=6.875 $Y=1.295
+ $X2=6.875 $Y2=1.505
r42 4 10 51.3295 $w=3.76e-07 $l=3.01662e-07 $layer=POLY_cond $X=6.645 $Y=1.765
+ $X2=6.735 $Y2=1.505
r43 4 6 204.047 $w=1.5e-07 $l=6.35e-07 $layer=POLY_cond $X=6.645 $Y=1.765
+ $X2=6.645 $Y2=2.4
r44 1 10 39.1513 $w=3.76e-07 $l=2.29783e-07 $layer=POLY_cond $X=6.58 $Y=1.34
+ $X2=6.735 $Y2=1.505
r45 1 3 154.24 $w=1.5e-07 $l=4.8e-07 $layer=POLY_cond $X=6.58 $Y=1.34 $X2=6.58
+ $Y2=0.86
.ends

.subckt PM_SKY130_FD_SC_HS__DFRBP_2%A_1800_291# 1 2 7 9 11 12 14 17 21 25 26 29
+ 32 33 37
c87 29 0 1.06861e-19 $X=10.59 $Y=1.95
c88 21 0 7.84587e-20 $X=9.165 $Y=1.62
r89 35 37 6.10934 $w=4.13e-07 $l=2.2e-07 $layer=LI1_cond $X=10.37 $Y=0.557
+ $X2=10.59 $Y2=0.557
r90 31 33 8.80985 $w=4.33e-07 $l=1.65e-07 $layer=LI1_cond $X=9.995 $Y=2.167
+ $X2=10.16 $Y2=2.167
r91 31 32 8.80985 $w=4.33e-07 $l=1.65e-07 $layer=LI1_cond $X=9.995 $Y=2.167
+ $X2=9.83 $Y2=2.167
r92 28 37 6.00275 $w=1.7e-07 $l=2.08e-07 $layer=LI1_cond $X=10.59 $Y=0.765
+ $X2=10.59 $Y2=0.557
r93 28 29 77.3102 $w=1.68e-07 $l=1.185e-06 $layer=LI1_cond $X=10.59 $Y=0.765
+ $X2=10.59 $Y2=1.95
r94 26 29 6.81649 $w=1.7e-07 $l=1.20208e-07 $layer=LI1_cond $X=10.505 $Y=2.035
+ $X2=10.59 $Y2=1.95
r95 26 33 22.508 $w=1.68e-07 $l=3.45e-07 $layer=LI1_cond $X=10.505 $Y=2.035
+ $X2=10.16 $Y2=2.035
r96 25 32 32.6203 $w=1.68e-07 $l=5e-07 $layer=LI1_cond $X=9.33 $Y=2.035 $X2=9.83
+ $Y2=2.035
r97 21 22 145.28 $w=1.7e-07 $l=1.7e-07 $layer=licon1_POLY $count=1 $X=9.165
+ $Y=1.62 $X2=9.165 $Y2=1.62
r98 19 25 7.24806 $w=1.7e-07 $l=1.70276e-07 $layer=LI1_cond $X=9.197 $Y=1.95
+ $X2=9.33 $Y2=2.035
r99 19 21 14.3512 $w=2.63e-07 $l=3.3e-07 $layer=LI1_cond $X=9.197 $Y=1.95
+ $X2=9.197 $Y2=1.62
r100 15 17 71.7872 $w=1.5e-07 $l=1.4e-07 $layer=POLY_cond $X=9.225 $Y=0.94
+ $X2=9.365 $Y2=0.94
r101 12 17 2.83073 $w=1.5e-07 $l=7.5e-08 $layer=POLY_cond $X=9.365 $Y=0.865
+ $X2=9.365 $Y2=0.94
r102 12 14 91.58 $w=1.5e-07 $l=2.85e-07 $layer=POLY_cond $X=9.365 $Y=0.865
+ $X2=9.365 $Y2=0.58
r103 11 22 38.5562 $w=2.99e-07 $l=1.92678e-07 $layer=POLY_cond $X=9.225 $Y=1.455
+ $X2=9.165 $Y2=1.62
r104 10 15 2.83073 $w=1.5e-07 $l=7.5e-08 $layer=POLY_cond $X=9.225 $Y=1.015
+ $X2=9.225 $Y2=0.94
r105 10 11 225.617 $w=1.5e-07 $l=4.4e-07 $layer=POLY_cond $X=9.225 $Y=1.015
+ $X2=9.225 $Y2=1.455
r106 7 22 52.2586 $w=2.99e-07 $l=2.7157e-07 $layer=POLY_cond $X=9.12 $Y=1.87
+ $X2=9.165 $Y2=1.62
r107 7 9 91.58 $w=1.5e-07 $l=2.85e-07 $layer=POLY_cond $X=9.12 $Y=1.87 $X2=9.12
+ $Y2=2.155
r108 2 31 600 $w=1.7e-07 $l=2.85307e-07 $layer=licon1_PDIFF $count=1 $X=9.845
+ $Y=1.945 $X2=9.995 $Y2=2.165
r109 1 35 182 $w=1.7e-07 $l=2.45204e-07 $layer=licon1_NDIFF $count=1 $X=10.23
+ $Y=0.37 $X2=10.37 $Y2=0.555
.ends

.subckt PM_SKY130_FD_SC_HS__DFRBP_2%A_1586_149# 1 2 9 12 13 15 16 18 19 21 22 24
+ 25 27 28 30 33 35 41 44 47 52 54 62
c138 44 0 3.03203e-19 $X=8.81 $Y=1.925
r139 55 56 6.6518 $w=4.71e-07 $l=6.5e-08 $layer=POLY_cond $X=10.155 $Y=1.31
+ $X2=10.22 $Y2=1.31
r140 48 58 52.1911 $w=4.71e-07 $l=5.1e-07 $layer=POLY_cond $X=10.245 $Y=1.31
+ $X2=10.755 $Y2=1.31
r141 48 56 2.55839 $w=4.71e-07 $l=2.5e-08 $layer=POLY_cond $X=10.245 $Y=1.31
+ $X2=10.22 $Y2=1.31
r142 47 48 145.28 $w=1.7e-07 $l=1.7e-07 $layer=licon1_POLY $count=1 $X=10.245
+ $Y=1.1 $X2=10.245 $Y2=1.1
r143 45 54 3.70735 $w=2.5e-07 $l=8.5e-08 $layer=LI1_cond $X=8.895 $Y=1.1
+ $X2=8.81 $Y2=1.1
r144 45 47 47.1454 $w=3.28e-07 $l=1.35e-06 $layer=LI1_cond $X=8.895 $Y=1.1
+ $X2=10.245 $Y2=1.1
r145 44 52 0.716491 $w=1.7e-07 $l=8.5e-08 $layer=LI1_cond $X=8.81 $Y=1.925
+ $X2=8.81 $Y2=2.01
r146 43 54 2.76166 $w=1.7e-07 $l=1.65e-07 $layer=LI1_cond $X=8.81 $Y=1.265
+ $X2=8.81 $Y2=1.1
r147 43 44 43.0588 $w=1.68e-07 $l=6.6e-07 $layer=LI1_cond $X=8.81 $Y=1.265
+ $X2=8.81 $Y2=1.925
r148 39 52 19.246 $w=1.68e-07 $l=2.95e-07 $layer=LI1_cond $X=8.515 $Y=2.01
+ $X2=8.81 $Y2=2.01
r149 39 41 2.76586 $w=2.48e-07 $l=6e-08 $layer=LI1_cond $X=8.515 $Y=2.095
+ $X2=8.515 $Y2=2.155
r150 35 54 3.70735 $w=2.5e-07 $l=1.18427e-07 $layer=LI1_cond $X=8.725 $Y=1.02
+ $X2=8.81 $Y2=1.1
r151 35 37 41.4278 $w=1.68e-07 $l=6.35e-07 $layer=LI1_cond $X=8.725 $Y=1.02
+ $X2=8.09 $Y2=1.02
r152 31 62 31.724 $w=4.71e-07 $l=3.1e-07 $layer=POLY_cond $X=12.05 $Y=1.31
+ $X2=11.74 $Y2=1.31
r153 31 33 253.819 $w=1.5e-07 $l=4.95e-07 $layer=POLY_cond $X=12.05 $Y=1.185
+ $X2=12.05 $Y2=0.69
r154 28 62 29.9051 $w=1.5e-07 $l=3.75e-07 $layer=POLY_cond $X=11.74 $Y=1.685
+ $X2=11.74 $Y2=1.31
r155 28 30 184.767 $w=1.5e-07 $l=5.75e-07 $layer=POLY_cond $X=11.74 $Y=1.685
+ $X2=11.74 $Y2=2.26
r156 25 62 16.8854 $w=4.71e-07 $l=1.65e-07 $layer=POLY_cond $X=11.575 $Y=1.31
+ $X2=11.74 $Y2=1.31
r157 25 60 37.8641 $w=4.71e-07 $l=3.7e-07 $layer=POLY_cond $X=11.575 $Y=1.31
+ $X2=11.205 $Y2=1.31
r158 25 27 142.993 $w=1.5e-07 $l=4.45e-07 $layer=POLY_cond $X=11.575 $Y=1.185
+ $X2=11.575 $Y2=0.74
r159 22 60 29.9051 $w=1.5e-07 $l=3.75e-07 $layer=POLY_cond $X=11.205 $Y=1.685
+ $X2=11.205 $Y2=1.31
r160 22 24 204.047 $w=1.5e-07 $l=6.35e-07 $layer=POLY_cond $X=11.205 $Y=1.685
+ $X2=11.205 $Y2=2.32
r161 19 60 6.14013 $w=4.71e-07 $l=6e-08 $layer=POLY_cond $X=11.145 $Y=1.31
+ $X2=11.205 $Y2=1.31
r162 19 58 39.9108 $w=4.71e-07 $l=3.9e-07 $layer=POLY_cond $X=11.145 $Y=1.31
+ $X2=10.755 $Y2=1.31
r163 19 21 142.993 $w=1.5e-07 $l=4.45e-07 $layer=POLY_cond $X=11.145 $Y=1.185
+ $X2=11.145 $Y2=0.74
r164 16 58 29.9051 $w=1.5e-07 $l=3.75e-07 $layer=POLY_cond $X=10.755 $Y=1.685
+ $X2=10.755 $Y2=1.31
r165 16 18 204.047 $w=1.5e-07 $l=6.35e-07 $layer=POLY_cond $X=10.755 $Y=1.685
+ $X2=10.755 $Y2=2.32
r166 13 15 91.58 $w=1.5e-07 $l=2.85e-07 $layer=POLY_cond $X=10.22 $Y=1.87
+ $X2=10.22 $Y2=2.155
r167 12 13 36.0588 $w=1.8e-07 $l=9e-08 $layer=POLY_cond $X=10.22 $Y=1.78
+ $X2=10.22 $Y2=1.87
r168 11 56 25.3998 $w=1.8e-07 $l=2.9e-07 $layer=POLY_cond $X=10.22 $Y=1.6
+ $X2=10.22 $Y2=1.31
r169 11 12 69.9677 $w=1.8e-07 $l=1.8e-07 $layer=POLY_cond $X=10.22 $Y=1.6
+ $X2=10.22 $Y2=1.78
r170 7 55 29.9051 $w=1.5e-07 $l=3.75e-07 $layer=POLY_cond $X=10.155 $Y=0.935
+ $X2=10.155 $Y2=1.31
r171 7 9 182.032 $w=1.5e-07 $l=3.55e-07 $layer=POLY_cond $X=10.155 $Y=0.935
+ $X2=10.155 $Y2=0.58
r172 2 41 600 $w=1.7e-07 $l=4.73498e-07 $layer=licon1_PDIFF $count=1 $X=8.095
+ $Y=1.945 $X2=8.475 $Y2=2.155
r173 1 37 182 $w=1.7e-07 $l=3.45868e-07 $layer=licon1_NDIFF $count=1 $X=7.93
+ $Y=0.745 $X2=8.09 $Y2=1.02
.ends

.subckt PM_SKY130_FD_SC_HS__DFRBP_2%A_2363_352# 1 2 7 9 12 14 16 19 21 23 27 31
+ 40
r60 40 41 9.71774 $w=3.72e-07 $l=7.5e-08 $layer=POLY_cond $X=13.365 $Y=1.532
+ $X2=13.44 $Y2=1.532
r61 39 40 45.9973 $w=3.72e-07 $l=3.55e-07 $layer=POLY_cond $X=13.01 $Y=1.532
+ $X2=13.365 $Y2=1.532
r62 38 39 12.3091 $w=3.72e-07 $l=9.5e-08 $layer=POLY_cond $X=12.915 $Y=1.532
+ $X2=13.01 $Y2=1.532
r63 34 36 17.3161 $w=3.1e-07 $l=4.4e-07 $layer=LI1_cond $X=12.162 $Y=1.465
+ $X2=12.162 $Y2=1.905
r64 32 38 14.9005 $w=3.72e-07 $l=1.15e-07 $layer=POLY_cond $X=12.8 $Y=1.532
+ $X2=12.915 $Y2=1.532
r65 31 32 145.28 $w=1.7e-07 $l=1.7e-07 $layer=licon1_POLY $count=1 $X=12.8
+ $Y=1.465 $X2=12.8 $Y2=1.465
r66 29 34 0.331605 $w=3.3e-07 $l=2.68e-07 $layer=LI1_cond $X=12.43 $Y=1.465
+ $X2=12.162 $Y2=1.465
r67 29 31 12.9213 $w=3.28e-07 $l=3.7e-07 $layer=LI1_cond $X=12.43 $Y=1.465
+ $X2=12.8 $Y2=1.465
r68 25 34 6.53365 $w=3.1e-07 $l=2.16852e-07 $layer=LI1_cond $X=12.282 $Y=1.3
+ $X2=12.162 $Y2=1.465
r69 25 27 30.6667 $w=2.93e-07 $l=7.85e-07 $layer=LI1_cond $X=12.282 $Y=1.3
+ $X2=12.282 $Y2=0.515
r70 21 36 1.94469 $w=4.1e-07 $l=7.95236e-08 $layer=LI1_cond $X=12.1 $Y=1.945
+ $X2=12.162 $Y2=1.905
r71 21 23 18.8326 $w=4.08e-07 $l=6.7e-07 $layer=LI1_cond $X=12.1 $Y=1.945
+ $X2=12.1 $Y2=2.615
r72 17 41 24.0971 $w=1.5e-07 $l=2.32e-07 $layer=POLY_cond $X=13.44 $Y=1.3
+ $X2=13.44 $Y2=1.532
r73 17 19 287.149 $w=1.5e-07 $l=5.6e-07 $layer=POLY_cond $X=13.44 $Y=1.3
+ $X2=13.44 $Y2=0.74
r74 14 40 24.0971 $w=1.5e-07 $l=2.33e-07 $layer=POLY_cond $X=13.365 $Y=1.765
+ $X2=13.365 $Y2=1.532
r75 14 16 204.047 $w=1.5e-07 $l=6.35e-07 $layer=POLY_cond $X=13.365 $Y=1.765
+ $X2=13.365 $Y2=2.4
r76 10 39 24.0971 $w=1.5e-07 $l=2.32e-07 $layer=POLY_cond $X=13.01 $Y=1.3
+ $X2=13.01 $Y2=1.532
r77 10 12 287.149 $w=1.5e-07 $l=5.6e-07 $layer=POLY_cond $X=13.01 $Y=1.3
+ $X2=13.01 $Y2=0.74
r78 7 38 24.0971 $w=1.5e-07 $l=2.33e-07 $layer=POLY_cond $X=12.915 $Y=1.765
+ $X2=12.915 $Y2=1.532
r79 7 9 204.047 $w=1.5e-07 $l=6.35e-07 $layer=POLY_cond $X=12.915 $Y=1.765
+ $X2=12.915 $Y2=2.4
r80 2 36 400 $w=1.7e-07 $l=3.09112e-07 $layer=licon1_PDIFF $count=1 $X=11.815
+ $Y=1.76 $X2=12.06 $Y2=1.905
r81 2 23 400 $w=1.7e-07 $l=9.69794e-07 $layer=licon1_PDIFF $count=1 $X=11.815
+ $Y=1.76 $X2=12.06 $Y2=2.615
r82 1 27 91 $w=1.7e-07 $l=2.03286e-07 $layer=licon1_NDIFF $count=2 $X=12.125
+ $Y=0.37 $X2=12.265 $Y2=0.515
.ends

.subckt PM_SKY130_FD_SC_HS__DFRBP_2%VPWR 1 2 3 4 5 6 7 8 9 28 30 34 36 40 44 46
+ 50 56 60 62 67 70 71 72 73 79 86 95 100 110 113 122 125 128 132
r148 131 132 9.3 $w=1.7e-07 $l=1.7e-07 $layer=mcon $count=1 $X=13.68 $Y=3.33
+ $X2=13.68 $Y2=3.33
r149 128 129 9.3 $w=1.7e-07 $l=1.7e-07 $layer=mcon $count=1 $X=12.72 $Y=3.33
+ $X2=12.72 $Y2=3.33
r150 125 126 4.65 $w=1.7e-07 $l=3.4e-07 $layer=mcon $count=2 $X=11.28 $Y=3.33
+ $X2=11.28 $Y2=3.33
r151 122 123 9.3 $w=1.7e-07 $l=1.7e-07 $layer=mcon $count=1 $X=9.36 $Y=3.33
+ $X2=9.36 $Y2=3.33
r152 117 119 0.133793 $w=4.9e-07 $l=4.8e-07 $layer=MET1_cond $X=6 $Y=3.33
+ $X2=6.48 $Y2=3.33
r153 116 119 3.1 $w=1.7e-07 $l=5.1e-07 $layer=mcon $count=3 $X=6.48 $Y=3.33
+ $X2=6.48 $Y2=3.33
r154 116 117 2.65714 $w=1.7e-07 $l=5.95e-07 $layer=mcon $count=3 $X=6 $Y=3.33
+ $X2=6 $Y2=3.33
r155 113 116 11.2572 $w=5.08e-07 $l=4.8e-07 $layer=LI1_cond $X=6.245 $Y=2.85