* File: sky130_fd_sc_hs__clkbuf_16.pex.spice
* Created: Thu Aug 27 20:35:22 2020
* Program "Calibre xRC"
* Version "v2018.4_34.26"
* Nominal Temperature: 27C
* Circuit Temperature: 27C
* 
.subckt PM_SKY130_FD_SC_HS__CLKBUF_16%A 3 5 7 10 12 14 17 19 21 24 26 28 29 30
+ 31 32 49
c88 26 0 1.47033e-19 $X=1.86 $Y=1.765
r89 49 50 7.16487 $w=3.7e-07 $l=5.5e-08 $layer=POLY_cond $X=1.805 $Y=1.557
+ $X2=1.86 $Y2=1.557
r90 47 49 26.0541 $w=3.7e-07 $l=2e-07 $layer=POLY_cond $X=1.605 $Y=1.557
+ $X2=1.805 $Y2=1.557
r91 47 48 72.64 $w=1.7e-07 $l=3.4e-07 $layer=licon1_POLY $count=2 $X=1.605
+ $Y=1.515 $X2=1.605 $Y2=1.515
r92 45 47 25.4027 $w=3.7e-07 $l=1.95e-07 $layer=POLY_cond $X=1.41 $Y=1.557
+ $X2=1.605 $Y2=1.557
r93 44 45 4.55946 $w=3.7e-07 $l=3.5e-08 $layer=POLY_cond $X=1.375 $Y=1.557
+ $X2=1.41 $Y2=1.557
r94 43 44 54.0622 $w=3.7e-07 $l=4.15e-07 $layer=POLY_cond $X=0.96 $Y=1.557
+ $X2=1.375 $Y2=1.557
r95 42 43 4.55946 $w=3.7e-07 $l=3.5e-08 $layer=POLY_cond $X=0.925 $Y=1.557
+ $X2=0.96 $Y2=1.557
r96 40 42 44.2919 $w=3.7e-07 $l=3.4e-07 $layer=POLY_cond $X=0.585 $Y=1.557
+ $X2=0.925 $Y2=1.557
r97 40 41 72.64 $w=1.7e-07 $l=3.4e-07 $layer=licon1_POLY $count=2 $X=0.585
+ $Y=1.515 $X2=0.585 $Y2=1.515
r98 38 40 9.77027 $w=3.7e-07 $l=7.5e-08 $layer=POLY_cond $X=0.51 $Y=1.557
+ $X2=0.585 $Y2=1.557
r99 37 38 1.95405 $w=3.7e-07 $l=1.5e-08 $layer=POLY_cond $X=0.495 $Y=1.557
+ $X2=0.51 $Y2=1.557
r100 32 48 2.01008 $w=4.28e-07 $l=7.5e-08 $layer=LI1_cond $X=1.68 $Y=1.565
+ $X2=1.605 $Y2=1.565
r101 31 48 10.8544 $w=4.28e-07 $l=4.05e-07 $layer=LI1_cond $X=1.2 $Y=1.565
+ $X2=1.605 $Y2=1.565
r102 30 31 12.8645 $w=4.28e-07 $l=4.8e-07 $layer=LI1_cond $X=0.72 $Y=1.565
+ $X2=1.2 $Y2=1.565
r103 30 41 3.61813 $w=4.28e-07 $l=1.35e-07 $layer=LI1_cond $X=0.72 $Y=1.565
+ $X2=0.585 $Y2=1.565
r104 29 41 9.24634 $w=4.28e-07 $l=3.45e-07 $layer=LI1_cond $X=0.24 $Y=1.565
+ $X2=0.585 $Y2=1.565
r105 26 50 23.9667 $w=1.5e-07 $l=2.08e-07 $layer=POLY_cond $X=1.86 $Y=1.765
+ $X2=1.86 $Y2=1.557
r106 26 28 204.047 $w=1.5e-07 $l=6.35e-07 $layer=POLY_cond $X=1.86 $Y=1.765
+ $X2=1.86 $Y2=2.4
r107 22 49 23.9667 $w=1.5e-07 $l=2.07e-07 $layer=POLY_cond $X=1.805 $Y=1.35
+ $X2=1.805 $Y2=1.557
r108 22 24 394.83 $w=1.5e-07 $l=7.7e-07 $layer=POLY_cond $X=1.805 $Y=1.35
+ $X2=1.805 $Y2=0.58
r109 19 45 23.9667 $w=1.5e-07 $l=2.08e-07 $layer=POLY_cond $X=1.41 $Y=1.765
+ $X2=1.41 $Y2=1.557
r110 19 21 204.047 $w=1.5e-07 $l=6.35e-07 $layer=POLY_cond $X=1.41 $Y=1.765
+ $X2=1.41 $Y2=2.4
r111 15 44 23.9667 $w=1.5e-07 $l=2.07e-07 $layer=POLY_cond $X=1.375 $Y=1.35
+ $X2=1.375 $Y2=1.557
r112 15 17 394.83 $w=1.5e-07 $l=7.7e-07 $layer=POLY_cond $X=1.375 $Y=1.35
+ $X2=1.375 $Y2=0.58
r113 12 43 23.9667 $w=1.5e-07 $l=2.08e-07 $layer=POLY_cond $X=0.96 $Y=1.765
+ $X2=0.96 $Y2=1.557
r114 12 14 204.047 $w=1.5e-07 $l=6.35e-07 $layer=POLY_cond $X=0.96 $Y=1.765
+ $X2=0.96 $Y2=2.4
r115 8 42 23.9667 $w=1.5e-07 $l=2.07e-07 $layer=POLY_cond $X=0.925 $Y=1.35
+ $X2=0.925 $Y2=1.557
r116 8 10 394.83 $w=1.5e-07 $l=7.7e-07 $layer=POLY_cond $X=0.925 $Y=1.35
+ $X2=0.925 $Y2=0.58
r117 5 38 23.9667 $w=1.5e-07 $l=2.08e-07 $layer=POLY_cond $X=0.51 $Y=1.765
+ $X2=0.51 $Y2=1.557
r118 5 7 204.047 $w=1.5e-07 $l=6.35e-07 $layer=POLY_cond $X=0.51 $Y=1.765
+ $X2=0.51 $Y2=2.4
r119 1 37 23.9667 $w=1.5e-07 $l=2.07e-07 $layer=POLY_cond $X=0.495 $Y=1.35
+ $X2=0.495 $Y2=1.557
r120 1 3 394.83 $w=1.5e-07 $l=7.7e-07 $layer=POLY_cond $X=0.495 $Y=1.35
+ $X2=0.495 $Y2=0.58
.ends

.subckt PM_SKY130_FD_SC_HS__CLKBUF_16%A_114_74# 1 2 3 4 15 18 19 21 24 27 28 30
+ 33 36 37 39 42 45 46 48 51 54 55 57 60 63 64 66 69 72 73 75 78 81 82 84 87 90
+ 91 93 96 99 100 102 104 107 109 111 114 117 118 120 122 123 125 128 131 132
+ 134 137 140 141 143 146 149 150 152 155 159 161 163 165 166 167 171 175 177
+ 179 180 183 186 194 197 200 203 206 209 211 212 267
c470 267 0 1.81624e-20 $X=9.105 $Y=1.355
c471 132 0 1.75614e-19 $X=8.17 $Y=1.765
r472 266 267 2.62292 $w=3.3e-07 $l=1.5e-08 $layer=POLY_cond $X=9.09 $Y=1.355
+ $X2=9.105 $Y2=1.355
r473 265 266 72.5674 $w=3.3e-07 $l=4.15e-07 $layer=POLY_cond $X=8.675 $Y=1.355
+ $X2=9.09 $Y2=1.355
r474 264 265 6.12014 $w=3.3e-07 $l=3.5e-08 $layer=POLY_cond $X=8.64 $Y=1.355
+ $X2=8.675 $Y2=1.355
r475 262 264 43.7153 $w=3.3e-07 $l=2.5e-07 $layer=POLY_cond $X=8.39 $Y=1.355
+ $X2=8.64 $Y2=1.355
r476 260 262 37.5952 $w=3.3e-07 $l=2.15e-07 $layer=POLY_cond $X=8.175 $Y=1.355
+ $X2=8.39 $Y2=1.355
r477 259 260 0.874306 $w=3.3e-07 $l=5e-09 $layer=POLY_cond $X=8.17 $Y=1.355
+ $X2=8.175 $Y2=1.355
r478 258 259 74.316 $w=3.3e-07 $l=4.25e-07 $layer=POLY_cond $X=7.745 $Y=1.355
+ $X2=8.17 $Y2=1.355
r479 257 258 4.37153 $w=3.3e-07 $l=2.5e-08 $layer=POLY_cond $X=7.72 $Y=1.355
+ $X2=7.745 $Y2=1.355
r480 255 257 45.4639 $w=3.3e-07 $l=2.6e-07 $layer=POLY_cond $X=7.46 $Y=1.355
+ $X2=7.72 $Y2=1.355
r481 253 255 33.2236 $w=3.3e-07 $l=1.9e-07 $layer=POLY_cond $X=7.27 $Y=1.355
+ $X2=7.46 $Y2=1.355
r482 252 253 4.37153 $w=3.3e-07 $l=2.5e-08 $layer=POLY_cond $X=7.245 $Y=1.355
+ $X2=7.27 $Y2=1.355
r483 251 252 74.316 $w=3.3e-07 $l=4.25e-07 $layer=POLY_cond $X=6.82 $Y=1.355
+ $X2=7.245 $Y2=1.355
r484 250 251 0.874306 $w=3.3e-07 $l=5e-09 $layer=POLY_cond $X=6.815 $Y=1.355
+ $X2=6.82 $Y2=1.355
r485 248 250 49.8355 $w=3.3e-07 $l=2.85e-07 $layer=POLY_cond $X=6.53 $Y=1.355
+ $X2=6.815 $Y2=1.355
r486 246 248 27.9778 $w=3.3e-07 $l=1.6e-07 $layer=POLY_cond $X=6.37 $Y=1.355
+ $X2=6.53 $Y2=1.355
r487 245 246 9.61737 $w=3.3e-07 $l=5.5e-08 $layer=POLY_cond $X=6.315 $Y=1.355
+ $X2=6.37 $Y2=1.355
r488 244 245 69.0702 $w=3.3e-07 $l=3.95e-07 $layer=POLY_cond $X=5.92 $Y=1.355
+ $X2=6.315 $Y2=1.355
r489 243 244 6.12014 $w=3.3e-07 $l=3.5e-08 $layer=POLY_cond $X=5.885 $Y=1.355
+ $X2=5.92 $Y2=1.355
r490 241 243 51.5841 $w=3.3e-07 $l=2.95e-07 $layer=POLY_cond $X=5.59 $Y=1.355
+ $X2=5.885 $Y2=1.355
r491 239 241 20.9834 $w=3.3e-07 $l=1.2e-07 $layer=POLY_cond $X=5.47 $Y=1.355
+ $X2=5.59 $Y2=1.355
r492 238 239 14.8632 $w=3.3e-07 $l=8.5e-08 $layer=POLY_cond $X=5.385 $Y=1.355
+ $X2=5.47 $Y2=1.355
r493 237 238 63.8244 $w=3.3e-07 $l=3.65e-07 $layer=POLY_cond $X=5.02 $Y=1.355
+ $X2=5.385 $Y2=1.355
r494 236 237 11.366 $w=3.3e-07 $l=6.5e-08 $layer=POLY_cond $X=4.955 $Y=1.355
+ $X2=5.02 $Y2=1.355
r495 234 236 48.9612 $w=3.3e-07 $l=2.8e-07 $layer=POLY_cond $X=4.675 $Y=1.355
+ $X2=4.955 $Y2=1.355
r496 232 234 18.3604 $w=3.3e-07 $l=1.05e-07 $layer=POLY_cond $X=4.57 $Y=1.355
+ $X2=4.675 $Y2=1.355
r497 231 232 20.109 $w=3.3e-07 $l=1.15e-07 $layer=POLY_cond $X=4.455 $Y=1.355
+ $X2=4.57 $Y2=1.355
r498 230 231 58.5785 $w=3.3e-07 $l=3.35e-07 $layer=POLY_cond $X=4.12 $Y=1.355
+ $X2=4.455 $Y2=1.355
r499 229 230 16.6118 $w=3.3e-07 $l=9.5e-08 $layer=POLY_cond $X=4.025 $Y=1.355
+ $X2=4.12 $Y2=1.355
r500 227 229 33.2236 $w=3.3e-07 $l=1.9e-07 $layer=POLY_cond $X=3.835 $Y=1.355
+ $X2=4.025 $Y2=1.355
r501 225 227 28.8521 $w=3.3e-07 $l=1.65e-07 $layer=POLY_cond $X=3.67 $Y=1.355
+ $X2=3.835 $Y2=1.355
r502 224 225 13.1146 $w=3.3e-07 $l=7.5e-08 $layer=POLY_cond $X=3.595 $Y=1.355
+ $X2=3.67 $Y2=1.355
r503 223 224 65.573 $w=3.3e-07 $l=3.75e-07 $layer=POLY_cond $X=3.22 $Y=1.355
+ $X2=3.595 $Y2=1.355
r504 222 223 9.61737 $w=3.3e-07 $l=5.5e-08 $layer=POLY_cond $X=3.165 $Y=1.355
+ $X2=3.22 $Y2=1.355
r505 220 222 33.2236 $w=3.3e-07 $l=1.9e-07 $layer=POLY_cond $X=2.975 $Y=1.355
+ $X2=3.165 $Y2=1.355
r506 218 220 35.8466 $w=3.3e-07 $l=2.05e-07 $layer=POLY_cond $X=2.77 $Y=1.355
+ $X2=2.975 $Y2=1.355
r507 217 218 6.12014 $w=3.3e-07 $l=3.5e-08 $layer=POLY_cond $X=2.735 $Y=1.355
+ $X2=2.77 $Y2=1.355
r508 216 217 72.5674 $w=3.3e-07 $l=4.15e-07 $layer=POLY_cond $X=2.32 $Y=1.355
+ $X2=2.735 $Y2=1.355
r509 214 216 2.62292 $w=3.3e-07 $l=1.5e-08 $layer=POLY_cond $X=2.305 $Y=1.355
+ $X2=2.32 $Y2=1.355
r510 212 262 145.28 $w=1.7e-07 $l=1.7e-07 $layer=licon1_POLY $count=1 $X=8.39
+ $Y=1.355 $X2=8.39 $Y2=1.355
r511 211 212 9.3 $w=1.7e-07 $l=1.7e-07 $layer=mcon $count=1 $X=8.39 $Y=1.295
+ $X2=8.39 $Y2=1.295
r512 209 255 145.28 $w=1.7e-07 $l=1.7e-07 $layer=licon1_POLY $count=1 $X=7.46
+ $Y=1.355 $X2=7.46 $Y2=1.355
r513 208 211 0.596692 $w=2.3e-07 $l=9.3e-07 $layer=MET1_cond $X=7.46 $Y=1.295
+ $X2=8.39 $Y2=1.295
r514 208 209 9.3 $w=1.7e-07 $l=1.7e-07 $layer=mcon $count=1 $X=7.46 $Y=1.295
+ $X2=7.46 $Y2=1.295
r515 206 248 145.28 $w=1.7e-07 $l=1.7e-07 $layer=licon1_POLY $count=1 $X=6.53
+ $Y=1.355 $X2=6.53 $Y2=1.355
r516 205 208 0.596692 $w=2.3e-07 $l=9.3e-07 $layer=MET1_cond $X=6.53 $Y=1.295
+ $X2=7.46 $Y2=1.295
r517 205 206 9.3 $w=1.7e-07 $l=1.7e-07 $layer=mcon $count=1 $X=6.53 $Y=1.295
+ $X2=6.53 $Y2=1.295
r518 203 241 145.28 $w=1.7e-07 $l=1.7e-07 $layer=licon1_POLY $count=1 $X=5.59
+ $Y=1.355 $X2=5.59 $Y2=1.355
r519 202 205 0.603108 $w=2.3e-07 $l=9.4e-07 $layer=MET1_cond $X=5.59 $Y=1.295
+ $X2=6.53 $Y2=1.295
r520 202 203 9.3 $w=1.7e-07 $l=1.7e-07 $layer=mcon $count=1 $X=5.59 $Y=1.295
+ $X2=5.59 $Y2=1.295
r521 200 234 145.28 $w=1.7e-07 $l=1.7e-07 $layer=licon1_POLY $count=1 $X=4.675
+ $Y=1.355 $X2=4.675 $Y2=1.355
r522 199 202 0.587068 $w=2.3e-07 $l=9.15e-07 $layer=MET1_cond $X=4.675 $Y=1.295
+ $X2=5.59 $Y2=1.295
r523 199 200 9.3 $w=1.7e-07 $l=1.7e-07 $layer=mcon $count=1 $X=4.675 $Y=1.295
+ $X2=4.675 $Y2=1.295
r524 197 227 145.28 $w=1.7e-07 $l=1.7e-07 $layer=licon1_POLY $count=1 $X=3.835
+ $Y=1.355 $X2=3.835 $Y2=1.355
r525 196 199 0.538948 $w=2.3e-07 $l=8.4e-07 $layer=MET1_cond $X=3.835 $Y=1.295
+ $X2=4.675 $Y2=1.295
r526 196 197 9.3 $w=1.7e-07 $l=1.7e-07 $layer=mcon $count=1 $X=3.835 $Y=1.295
+ $X2=3.835 $Y2=1.295
r527 194 220 145.28 $w=1.7e-07 $l=1.7e-07 $layer=licon1_POLY $count=1 $X=2.975
+ $Y=1.355 $X2=2.975 $Y2=1.355
r528 193 196 0.55178 $w=2.3e-07 $l=8.6e-07 $layer=MET1_cond $X=2.975 $Y=1.295
+ $X2=3.835 $Y2=1.295
r529 193 194 9.3 $w=1.7e-07 $l=1.7e-07 $layer=mcon $count=1 $X=2.975 $Y=1.295
+ $X2=2.975 $Y2=1.295
r530 190 290 13.3619 $w=2.1e-07 $l=2.3e-07 $layer=LI1_cond $X=2.087 $Y=1.295
+ $X2=2.087 $Y2=1.065
r531 189 193 0.564612 $w=2.3e-07 $l=8.8e-07 $layer=MET1_cond $X=2.095 $Y=1.295
+ $X2=2.975 $Y2=1.295
r532 189 190 9.3 $w=1.7e-07 $l=1.7e-07 $layer=mcon $count=1 $X=2.095 $Y=1.295
+ $X2=2.095 $Y2=1.295
r533 185 186 27.0749 $w=1.68e-07 $l=4.15e-07 $layer=LI1_cond $X=1.635 $Y=2.035
+ $X2=2.05 $Y2=2.035
r534 180 186 0.716491 $w=1.7e-07 $l=8.5e-08 $layer=LI1_cond $X=2.05 $Y=1.95
+ $X2=2.05 $Y2=2.035
r535 179 190 7.15932 $w=2.1e-07 $l=1.32212e-07 $layer=LI1_cond $X=2.05 $Y=1.41
+ $X2=2.087 $Y2=1.295
r536 179 180 35.2299 $w=1.68e-07 $l=5.4e-07 $layer=LI1_cond $X=2.05 $Y=1.41
+ $X2=2.05 $Y2=1.95
r537 178 183 7.02821 $w=1.7e-07 $l=1.25e-07 $layer=LI1_cond $X=1.675 $Y=1.065
+ $X2=1.55 $Y2=1.065
r538 177 290 1.9771 $w=1.7e-07 $l=1.22e-07 $layer=LI1_cond $X=1.965 $Y=1.065
+ $X2=2.087 $Y2=1.065
r539 177 178 18.9198 $w=1.68e-07 $l=2.9e-07 $layer=LI1_cond $X=1.965 $Y=1.065
+ $X2=1.675 $Y2=1.065
r540 175 185 24.2711 $w=3.28e-07 $l=6.95e-07 $layer=LI1_cond $X=1.635 $Y=2.815
+ $X2=1.635 $Y2=2.12
r541 169 183 0.00168595 $w=2.5e-07 $l=8.5e-08 $layer=LI1_cond $X=1.55 $Y=0.98
+ $X2=1.55 $Y2=1.065
r542 169 171 18.4391 $w=2.48e-07 $l=4e-07 $layer=LI1_cond $X=1.55 $Y=0.98
+ $X2=1.55 $Y2=0.58
r543 168 182 5.12568 $w=1.7e-07 $l=1.65e-07 $layer=LI1_cond $X=0.9 $Y=2.035
+ $X2=0.735 $Y2=2.035
r544 167 185 10.7647 $w=1.68e-07 $l=1.65e-07 $layer=LI1_cond $X=1.47 $Y=2.035
+ $X2=1.635 $Y2=2.035
r545 167 168 37.1872 $w=1.68e-07 $l=5.7e-07 $layer=LI1_cond $X=1.47 $Y=2.035
+ $X2=0.9 $Y2=2.035
r546 165 183 7.02821 $w=1.7e-07 $l=1.25e-07 $layer=LI1_cond $X=1.425 $Y=1.065
+ $X2=1.55 $Y2=1.065
r547 165 166 41.1016 $w=1.68e-07 $l=6.3e-07 $layer=LI1_cond $X=1.425 $Y=1.065
+ $X2=0.795 $Y2=1.065
r548 161 182 2.6405 $w=3.3e-07 $l=8.5e-08 $layer=LI1_cond $X=0.735 $Y=2.12
+ $X2=0.735 $Y2=2.035
r549 161 163 24.2711 $w=3.28e-07 $l=6.95e-07 $layer=LI1_cond $X=0.735 $Y=2.12
+ $X2=0.735 $Y2=2.815
r550 157 166 7.14316 $w=1.7e-07 $l=1.62019e-07 $layer=LI1_cond $X=0.67 $Y=0.98
+ $X2=0.795 $Y2=1.065
r551 157 159 18.4391 $w=2.48e-07 $l=4e-07 $layer=LI1_cond $X=0.67 $Y=0.98
+ $X2=0.67 $Y2=0.58
r552 153 267 21.2229 $w=1.5e-07 $l=1.65e-07 $layer=POLY_cond $X=9.105 $Y=1.19
+ $X2=9.105 $Y2=1.355
r553 153 155 312.787 $w=1.5e-07 $l=6.1e-07 $layer=POLY_cond $X=9.105 $Y=1.19
+ $X2=9.105 $Y2=0.58
r554 150 152 204.047 $w=1.5e-07 $l=6.35e-07 $layer=POLY_cond $X=9.09 $Y=1.765
+ $X2=9.09 $Y2=2.4
r555 149 150 36.0588 $w=1.8e-07 $l=9e-08 $layer=POLY_cond $X=9.09 $Y=1.675
+ $X2=9.09 $Y2=1.765
r556 148 266 16.9318 $w=1.8e-07 $l=1.65e-07 $layer=POLY_cond $X=9.09 $Y=1.52
+ $X2=9.09 $Y2=1.355
r557 148 149 60.25 $w=1.8e-07 $l=1.55e-07 $layer=POLY_cond $X=9.09 $Y=1.52
+ $X2=9.09 $Y2=1.675
r558 144 265 21.2229 $w=1.5e-07 $l=1.65e-07 $layer=POLY_cond $X=8.675 $Y=1.19
+ $X2=8.675 $Y2=1.355
r559 144 146 312.787 $w=1.5e-07 $l=6.1e-07 $layer=POLY_cond $X=8.675 $Y=1.19
+ $X2=8.675 $Y2=0.58
r560 141 143 204.047 $w=1.5e-07 $l=6.35e-07 $layer=POLY_cond $X=8.64 $Y=1.765
+ $X2=8.64 $Y2=2.4
r561 140 141 36.0588 $w=1.8e-07 $l=9e-08 $layer=POLY_cond $X=8.64 $Y=1.675
+ $X2=8.64 $Y2=1.765
r562 139 264 16.9318 $w=1.8e-07 $l=1.65e-07 $layer=POLY_cond $X=8.64 $Y=1.52
+ $X2=8.64 $Y2=1.355
r563 139 140 60.25 $w=1.8e-07 $l=1.55e-07 $layer=POLY_cond $X=8.64 $Y=1.52
+ $X2=8.64 $Y2=1.675
r564 135 260 21.2229 $w=1.5e-07 $l=1.65e-07 $layer=POLY_cond $X=8.175 $Y=1.19
+ $X2=8.175 $Y2=1.355
r565 135 137 312.787 $w=1.5e-07 $l=6.1e-07 $layer=POLY_cond $X=8.175 $Y=1.19
+ $X2=8.175 $Y2=0.58
r566 132 134 204.047 $w=1.5e-07 $l=6.35e-07 $layer=POLY_cond $X=8.17 $Y=1.765
+ $X2=8.17 $Y2=2.4
r567 131 132 36.0588 $w=1.8e-07 $l=9e-08 $layer=POLY_cond $X=8.17 $Y=1.675
+ $X2=8.17 $Y2=1.765
r568 130 259 16.9318 $w=1.8e-07 $l=1.65e-07 $layer=POLY_cond $X=8.17 $Y=1.52
+ $X2=8.17 $Y2=1.355
r569 130 131 60.25 $w=1.8e-07 $l=1.55e-07 $layer=POLY_cond $X=8.17 $Y=1.52
+ $X2=8.17 $Y2=1.675
r570 126 258 21.2229 $w=1.5e-07 $l=1.65e-07 $layer=POLY_cond $X=7.745 $Y=1.19
+ $X2=7.745 $Y2=1.355
r571 126 128 312.787 $w=1.5e-07 $l=6.1e-07 $layer=POLY_cond $X=7.745 $Y=1.19
+ $X2=7.745 $Y2=0.58
r572 123 125 204.047 $w=1.5e-07 $l=6.35e-07 $layer=POLY_cond $X=7.72 $Y=1.765
+ $X2=7.72 $Y2=2.4
r573 122 123 36.0588 $w=1.8e-07 $l=9e-08 $layer=POLY_cond $X=7.72 $Y=1.675
+ $X2=7.72 $Y2=1.765
r574 121 257 16.9318 $w=1.8e-07 $l=1.65e-07 $layer=POLY_cond $X=7.72 $Y=1.52
+ $X2=7.72 $Y2=1.355
r575 121 122 60.25 $w=1.8e-07 $l=1.55e-07 $layer=POLY_cond $X=7.72 $Y=1.52
+ $X2=7.72 $Y2=1.675
r576 118 120 204.047 $w=1.5e-07 $l=6.35e-07 $layer=POLY_cond $X=7.27 $Y=1.765
+ $X2=7.27 $Y2=2.4
r577 117 118 36.0588 $w=1.8e-07 $l=9e-08 $layer=POLY_cond $X=7.27 $Y=1.675
+ $X2=7.27 $Y2=1.765
r578 116 253 16.9318 $w=1.8e-07 $l=1.65e-07 $layer=POLY_cond $X=7.27 $Y=1.52
+ $X2=7.27 $Y2=1.355
r579 116 117 60.25 $w=1.8e-07 $l=1.55e-07 $layer=POLY_cond $X=7.27 $Y=1.52
+ $X2=7.27 $Y2=1.675
r580 112 252 21.2229 $w=1.5e-07 $l=1.65e-07 $layer=POLY_cond $X=7.245 $Y=1.19
+ $X2=7.245 $Y2=1.355
r581 112 114 312.787 $w=1.5e-07 $l=6.1e-07 $layer=POLY_cond $X=7.245 $Y=1.19
+ $X2=7.245 $Y2=0.58
r582 109 111 204.047 $w=1.5e-07 $l=6.35e-07 $layer=POLY_cond $X=6.82 $Y=1.765
+ $X2=6.82 $Y2=2.4
r583 105 250 21.2229 $w=1.5e-07 $l=1.65e-07 $layer=POLY_cond $X=6.815 $Y=1.19
+ $X2=6.815 $Y2=1.355
r584 105 107 312.787 $w=1.5e-07 $l=6.1e-07 $layer=POLY_cond $X=6.815 $Y=1.19
+ $X2=6.815 $Y2=0.58
r585 104 109 36.0588 $w=1.8e-07 $l=9e-08 $layer=POLY_cond $X=6.82 $Y=1.675
+ $X2=6.82 $Y2=1.765
r586 103 251 16.9318 $w=1.8e-07 $l=1.65e-07 $layer=POLY_cond $X=6.82 $Y=1.52
+ $X2=6.82 $Y2=1.355
r587 103 104 60.25 $w=1.8e-07 $l=1.55e-07 $layer=POLY_cond $X=6.82 $Y=1.52
+ $X2=6.82 $Y2=1.675
r588 100 102 204.047 $w=1.5e-07 $l=6.35e-07 $layer=POLY_cond $X=6.37 $Y=1.765
+ $X2=6.37 $Y2=2.4
r589 99 100 36.0588 $w=1.8e-07 $l=9e-08 $layer=POLY_cond $X=6.37 $Y=1.675
+ $X2=6.37 $Y2=1.765
r590 98 246 16.9318 $w=1.8e-07 $l=1.65e-07 $layer=POLY_cond $X=6.37 $Y=1.52
+ $X2=6.37 $Y2=1.355
r591 98 99 60.25 $w=1.8e-07 $l=1.55e-07 $layer=POLY_cond $X=6.37 $Y=1.52
+ $X2=6.37 $Y2=1.675
r592 94 245 21.2229 $w=1.5e-07 $l=1.65e-07 $layer=POLY_cond $X=6.315 $Y=1.19
+ $X2=6.315 $Y2=1.355
r593 94 96 312.787 $w=1.5e-07 $l=6.1e-07 $layer=POLY_cond $X=6.315 $Y=1.19
+ $X2=6.315 $Y2=0.58
r594 91 93 204.047 $w=1.5e-07 $l=6.35e-07 $layer=POLY_cond $X=5.92 $Y=1.765
+ $X2=5.92 $Y2=2.4
r595 90 91 36.0588 $w=1.8e-07 $l=9e-08 $layer=POLY_cond $X=5.92 $Y=1.675
+ $X2=5.92 $Y2=1.765
r596 89 244 16.9318 $w=1.8e-07 $l=1.65e-07 $layer=POLY_cond $X=5.92 $Y=1.52
+ $X2=5.92 $Y2=1.355
r597 89 90 60.25 $w=1.8e-07 $l=1.55e-07 $layer=POLY_cond $X=5.92 $Y=1.52
+ $X2=5.92 $Y2=1.675
r598 85 243 21.2229 $w=1.5e-07 $l=1.65e-07 $layer=POLY_cond $X=5.885 $Y=1.19
+ $X2=5.885 $Y2=1.355
r599 85 87 312.787 $w=1.5e-07 $l=6.1e-07 $layer=POLY_cond $X=5.885 $Y=1.19
+ $X2=5.885 $Y2=0.58
r600 82 84 204.047 $w=1.5e-07 $l=6.35e-07 $layer=POLY_cond $X=5.47 $Y=1.765
+ $X2=5.47 $Y2=2.4
r601 81 82 36.0588 $w=1.8e-07 $l=9e-08 $layer=POLY_cond $X=5.47 $Y=1.675
+ $X2=5.47 $Y2=1.765
r602 80 239 16.9318 $w=1.8e-07 $l=1.65e-07 $layer=POLY_cond $X=5.47 $Y=1.52
+ $X2=5.47 $Y2=1.355
r603 80 81 60.25 $w=1.8e-07 $l=1.55e-07 $layer=POLY_cond $X=5.47 $Y=1.52
+ $X2=5.47 $Y2=1.675
r604 76 238 21.2229 $w=1.5e-07 $l=1.65e-07 $layer=POLY_cond $X=5.385 $Y=1.19
+ $X2=5.385 $Y2=1.355
r605 76 78 312.787 $w=1.5e-07 $l=6.1e-07 $layer=POLY_cond $X=5.385 $Y=1.19
+ $X2=5.385 $Y2=0.58
r606 73 75 204.047 $w=1.5e-07 $l=6.35e-07 $layer=POLY_cond $X=5.02 $Y=1.765
+ $X2=5.02 $Y2=2.4
r607 72 73 36.0588 $w=1.8e-07 $l=9e-08 $layer=POLY_cond $X=5.02 $Y=1.675
+ $X2=5.02 $Y2=1.765
r608 71 237 16.9318 $w=1.8e-07 $l=1.65e-07 $layer=POLY_cond $X=5.02 $Y=1.52
+ $X2=5.02 $Y2=1.355
r609 71 72 60.25 $w=1.8e-07 $l=1.55e-07 $layer=POLY_cond $X=5.02 $Y=1.52
+ $X2=5.02 $Y2=1.675
r610 67 236 21.2229 $w=1.5e-07 $l=1.65e-07 $layer=POLY_cond $X=4.955 $Y=1.19
+ $X2=4.955 $Y2=1.355
r611 67 69 312.787 $w=1.5e-07 $l=6.1e-07 $layer=POLY_cond $X=4.955 $Y=1.19
+ $X2=4.955 $Y2=0.58
r612 64 66 204.047 $w=1.5e-07 $l=6.35e-07 $layer=POLY_cond $X=4.57 $Y=1.765
+ $X2=4.57 $Y2=2.4
r613 63 64 36.0588 $w=1.8e-07 $l=9e-08 $layer=POLY_cond $X=4.57 $Y=1.675
+ $X2=4.57 $Y2=1.765
r614 62 232 16.9318 $w=1.8e-07 $l=1.65e-07 $layer=POLY_cond $X=4.57 $Y=1.52
+ $X2=4.57 $Y2=1.355
r615 62 63 60.25 $w=1.8e-07 $l=1.55e-07 $layer=POLY_cond $X=4.57 $Y=1.52
+ $X2=4.57 $Y2=1.675
r616 58 231 21.2229 $w=1.5e-07 $l=1.65e-07 $layer=POLY_cond $X=4.455 $Y=1.19
+ $X2=4.455 $Y2=1.355
r617 58 60 312.787 $w=1.5e-07 $l=6.1e-07 $layer=POLY_cond $X=4.455 $Y=1.19
+ $X2=4.455 $Y2=0.58
r618 55 57 204.047 $w=1.5e-07 $l=6.35e-07 $layer=POLY_cond $X=4.12 $Y=1.765
+ $X2=4.12 $Y2=2.4
r619 54 55 36.0588 $w=1.8e-07 $l=9e-08 $layer=POLY_cond $X=4.12 $Y=1.675
+ $X2=4.12 $Y2=1.765
r620 53 230 16.9318 $w=1.8e-07 $l=1.65e-07 $layer=POLY_cond $X=4.12 $Y=1.52
+ $X2=4.12 $Y2=1.355
r621 53 54 60.25 $w=1.8e-07 $l=1.55e-07 $layer=POLY_cond $X=4.12 $Y=1.52
+ $X2=4.12 $Y2=1.675
r622 49 229 21.2229 $w=1.5e-07 $l=1.65e-07 $layer=POLY_cond $X=4.025 $Y=1.19
+ $X2=4.025 $Y2=1.355
r623 49 51 312.787 $w=1.5e-07 $l=6.1e-07 $layer=POLY_cond $X=4.025 $Y=1.19
+ $X2=4.025 $Y2=0.58
r624 46 48 204.047 $w=1.5e-07 $l=6.35e-07 $layer=POLY_cond $X=3.67 $Y=1.765
+ $X2=3.67 $Y2=2.4
r625 45 46 36.0588 $w=1.8e-07 $l=9e-08 $layer=POLY_cond $X=3.67 $Y=1.675
+ $X2=3.67 $Y2=1.765
r626 44 225 16.9318 $w=1.8e-07 $l=1.65e-07 $layer=POLY_cond $X=3.67 $Y=1.52
+ $X2=3.67 $Y2=1.355
r627 44 45 60.25 $w=1.8e-07 $l=1.55e-07 $layer=POLY_cond $X=3.67 $Y=1.52
+ $X2=3.67 $Y2=1.675
r628 40 224 21.2229 $w=1.5e-07 $l=1.65e-07 $layer=POLY_cond $X=3.595 $Y=1.19
+ $X2=3.595 $Y2=1.355
r629 40 42 312.787 $w=1.5e-07 $l=6.1e-07 $layer=POLY_cond $X=3.595 $Y=1.19
+ $X2=3.595 $Y2=0.58
r630 37 39 204.047 $w=1.5e-07 $l=6.35e-07 $layer=POLY_cond $X=3.22 $Y=1.765
+ $X2=3.22 $Y2=2.4
r631 36 37 36.0588 $w=1.8e-07 $l=9e-08 $layer=POLY_cond $X=3.22 $Y=1.675
+ $X2=3.22 $Y2=1.765
r632 35 223 16.9318 $w=1.8e-07 $l=1.65e-07 $layer=POLY_cond $X=3.22 $Y=1.52
+ $X2=3.22 $Y2=1.355
r633 35 36 60.25 $w=1.8e-07 $l=1.55e-07 $layer=POLY_cond $X=3.22 $Y=1.52
+ $X2=3.22 $Y2=1.675
r634 31 222 21.2229 $w=1.5e-07 $l=1.65e-07 $layer=POLY_cond $X=3.165 $Y=1.19
+ $X2=3.165 $Y2=1.355
r635 31 33 312.787 $w=1.5e-07 $l=6.1e-07 $layer=POLY_cond $X=3.165 $Y=1.19
+ $X2=3.165 $Y2=0.58
r636 28 30 204.047 $w=1.5e-07 $l=6.35e-07 $layer=POLY_cond $X=2.77 $Y=1.765
+ $X2=2.77 $Y2=2.4
r637 27 28 36.0588 $w=1.8e-07 $l=9e-08 $layer=POLY_cond $X=2.77 $Y=1.675
+ $X2=2.77 $Y2=1.765
r638 26 218 16.9318 $w=1.8e-07 $l=1.65e-07 $layer=POLY_cond $X=2.77 $Y=1.52
+ $X2=2.77 $Y2=1.355
r639 26 27 60.25 $w=1.8e-07 $l=1.55e-07 $layer=POLY_cond $X=2.77 $Y=1.52
+ $X2=2.77 $Y2=1.675
r640 22 217 21.2229 $w=1.5e-07 $l=1.65e-07 $layer=POLY_cond $X=2.735 $Y=1.19
+ $X2=2.735 $Y2=1.355
r641 22 24 312.787 $w=1.5e-07 $l=6.1e-07 $layer=POLY_cond $X=2.735 $Y=1.19
+ $X2=2.735 $Y2=0.58
r642 19 21 204.047 $w=1.5e-07 $l=6.35e-07 $layer=POLY_cond $X=2.32 $Y=1.765
+ $X2=2.32 $Y2=2.4
r643 18 19 36.0588 $w=1.8e-07 $l=9e-08 $layer=POLY_cond $X=2.32 $Y=1.675
+ $X2=2.32 $Y2=1.765
r644 17 216 16.9318 $w=1.8e-07 $l=1.65e-07 $layer=POLY_cond $X=2.32 $Y=1.52
+ $X2=2.32 $Y2=1.355
r645 17 18 60.25 $w=1.8e-07 $l=1.55e-07 $layer=POLY_cond $X=2.32 $Y=1.52
+ $X2=2.32 $Y2=1.675
r646 13 214 21.2229 $w=1.5e-07 $l=1.65e-07 $layer=POLY_cond $X=2.305 $Y=1.19
+ $X2=2.305 $Y2=1.355
r647 13 15 312.787 $w=1.5e-07 $l=6.1e-07 $layer=POLY_cond $X=2.305 $Y=1.19
+ $X2=2.305 $Y2=0.58
r648 4 185 400 $w=1.7e-07 $l=3.4187e-07 $layer=licon1_PDIFF $count=1 $X=1.485
+ $Y=1.84 $X2=1.635 $Y2=2.115
r649 4 175 400 $w=1.7e-07 $l=1.04732e-06 $layer=licon1_PDIFF $count=1 $X=1.485
+ $Y=1.84 $X2=1.635 $Y2=2.815
r650 3 182 400 $w=1.7e-07 $l=3.4187e-07 $layer=licon1_PDIFF $count=1 $X=0.585
+ $Y=1.84 $X2=0.735 $Y2=2.115
r651 3 163 400 $w=1.7e-07 $l=1.04732e-06 $layer=licon1_PDIFF $count=1 $X=0.585
+ $Y=1.84 $X2=0.735 $Y2=2.815
r652 2 171 182 $w=1.7e-07 $l=2.71109e-07 $layer=licon1_NDIFF $count=1 $X=1.45
+ $Y=0.37 $X2=1.59 $Y2=0.58
r653 1 159 182 $w=1.7e-07 $l=2.71109e-07 $layer=licon1_NDIFF $count=1 $X=0.57
+ $Y=0.37 $X2=0.71 $Y2=0.58
.ends

.subckt PM_SKY130_FD_SC_HS__CLKBUF_16%VPWR 1 2 3 4 5 6 7 8 9 10 11 34 36 42 46
+ 50 56 62 68 72 76 82 88 92 94 99 100 102 103 105 106 108 109 110 111 112 118
+ 135 140 145 154 157 160 163 167
r192 166 167 9.3 $w=1.7e-07 $l=1.7e-07 $layer=mcon $count=1 $X=9.36 $Y=3.33
+ $X2=9.36 $Y2=3.33
r193 163 164 9.3 $w=1.7e-07 $l=1.7e-07 $layer=mcon $count=1 $X=8.4 $Y=3.33
+ $X2=8.4 $Y2=3.33
r194 160 161 9.3 $w=1.7e-07 $l=1.7e-07 $layer=mcon $count=1 $X=7.44 $Y=3.33
+ $X2=7.44 $Y2=3.33
r195 157 158 4.65 $w=1.7e-07 $l=3.4e-07 $layer=mcon $count=2 $X=6.48 $Y=3.33
+ $X2=6.48 $Y2=3.33
r196 154 155 9.3 $w=1.7e-07 $l=1.7e-07 $layer=mcon $count=1 $X=2.16 $Y=3.33
+ $X2=2.16 $Y2=3.33
r197 151 152 9.3 $w=1.7e-07 $l=1.7e-07 $layer=mcon $count=1 $X=0.24 $Y=3.33
+ $X2=0.24 $Y2=3.33
r198 149 167 0.133793 $w=4.9e-07 $l=4.8e-07 $layer=MET1_cond $X=8.88 $Y=3.33
+ $X2=9.36 $Y2=3.33
r199 149 164 0.133793 $w=4.9e-07 $l=4.8e-07 $layer=MET1_cond $X=8.88 $Y=3.33
+ $X2=8.4 $Y2=3.33
r200 148 149 9.3 $w=1.7e-07 $l=1.7e-07 $layer=mcon $count=1 $X=8.88 $Y=3.33
+ $X2=8.88 $Y2=3.33
r201 146 163 8.61065 $w=1.7e-07 $l=1.65e-07 $layer=LI1_cond $X=8.56 $Y=3.33
+ $X2=8.395 $Y2=3.33
r202 146 148 20.877 $w=1.68e-07 $l=3.2e-07 $layer=LI1_cond $X=8.56 $Y=3.33
+ $X2=8.88 $Y2=3.33
r203 145 166 4.72267 $w=1.7e-07 $l=2.25e-07 $layer=LI1_cond $X=9.15 $Y=3.33
+ $X2=9.375 $Y2=3.33
r204 145 148 17.615 $w=1.68e-07 $l=2.7e-07 $layer=LI1_cond $X=9.15 $Y=3.33
+ $X2=8.88 $Y2=3.33
r205 144 164 0.133793 $w=4.9e-07 $l=4.8e-07 $layer=MET1_cond $X=7.92 $Y=3.33
+ $X2=8.4 $Y2=3.33
r206 144 161 0.133793 $w=4.9e-07 $l=4.8e-07 $layer=MET1_cond $X=7.92 $Y=3.33
+ $X2=7.44 $Y2=3.33
r207 143 144 9.3 $w=1.7e-07 $l=1.7e-07 $layer=mcon $count=1 $X=7.92 $Y=3.33
+ $X2=7.92 $Y2=3.33
r208 141 160 8.61065 $w=1.7e-07 $l=1.65e-07 $layer=LI1_cond $X=7.66 $Y=3.33
+ $X2=7.495 $Y2=3.33
r209 141 143 16.9626 $w=1.68e-07 $l=2.6e-07 $layer=LI1_cond $X=7.66 $Y=3.33
+ $X2=7.92 $Y2=3.33
r210 140 163 8.61065 $w=1.7e-07 $l=1.65e-07 $layer=LI1_cond $X=8.23 $Y=3.33
+ $X2=8.395 $Y2=3.33
r211 140 143 20.2246 $w=1.68e-07 $l=3.1e-07 $layer=LI1_cond $X=8.23 $Y=3.33
+ $X2=7.92 $Y2=3.33
r212 139 161 0.133793 $w=4.9e-07 $l=4.8e-07 $layer=MET1_cond $X=6.96 $Y=3.33
+ $X2=7.44 $Y2=3.33
r213 139 158 0.133793 $w=4.9e-07 $l=4.8e-07 $layer=MET1_cond $X=6.96 $Y=3.33
+ $X2=6.48 $Y2=3.33
r214 138 139 9.3 $w=1.7e-07 $l=1.7e-07 $layer=mcon $count=1 $X=6.96 $Y=3.33
+ $X2=6.96 $Y2=3.33
r215 136 157 8.61065 $w=1.7e-07 $l=1.65e-07 $layer=LI1_cond $X=6.76 $Y=3.33
+ $X2=6.595 $Y2=3.33
r216 136 138 13.0481 $w=1.68e-07 $l=2e-07 $layer=LI1_cond $X=6.76 $Y=3.33
+ $X2=6.96 $Y2=3.33
r217 135 160 8.61065 $w=1.7e-07 $l=1.65e-07 $layer=LI1_cond $X=7.33 $Y=3.33
+ $X2=7.495 $Y2=3.33
r218 135 138 24.139 $w=1.68e-07 $l=3.7e-07 $layer=LI1_cond $X=7.33 $Y=3.33
+ $X2=6.96 $Y2=3.33
r219 134 158 0.267585 $w=4.9e-07 $l=9.6e-07 $layer=MET1_cond $X=5.52 $Y=3.33
+ $X2=6.48 $Y2=3.33
r220 133 134 4.65 $w=1.7e-07 $l=3.4e-07 $layer=mcon $count=2 $X=5.52 $Y=3.33
+ $X2=5.52 $Y2=3.33
r221 130 131 4.65 $w=1.7e-07 $l=3.4e-07 $layer=mcon $count=2 $X=4.56 $Y=3.33
+ $X2=4.56 $Y2=3.33
r222 128 131 0.267585 $w=4.9e-07 $l=9.6e-07 $layer=MET1_cond $X=3.6 $Y=3.33
+ $X2=4.56 $Y2=3.33
r223 127 128 4.65 $w=1.7e-07 $l=3.4e-07 $layer=mcon $count=2 $X=3.6 $Y=3.33
+ $X2=3.6 $Y2=3.33
r224 125 128 0.267585 $w=4.9e-07 $l=9.6e-07 $layer=MET1_cond $X=2.64 $Y=3.33
+ $X2=3.6 $Y2=3.33
r225 125 155 0.133793 $w=4.9e-07 $l=4.8e-07 $layer=MET1_cond $X=2.64 $Y=3.33
+ $X2=2.16 $Y2=3.33
r226 124 125 9.3 $w=1.7e-07 $l=1.7e-07 $layer=mcon $count=1 $X=2.64 $Y=3.33
+ $X2=2.64 $Y2=3.33
r227 122 154 7.02821 $w=1.7e-07 $l=1.25e-07 $layer=LI1_cond $X=2.25 $Y=3.33
+ $X2=2.125 $Y2=3.33
r228 122 124 25.4438 $w=1.68e-07 $l=3.9e-07 $layer=LI1_cond $X=2.25 $Y=3.33
+ $X2=2.64 $Y2=3.33
r229 121 155 0.133793 $w=4.9e-07 $l=4.8e-07 $layer=MET1_cond $X=1.68 $Y=3.33
+ $X2=2.16 $Y2=3.33
r230 120 121 4.65 $w=1.7e-07 $l=3.4e-07 $layer=mcon $count=2 $X=1.68 $Y=3.33
+ $X2=1.68 $Y2=3.33
r231 118 154 7.02821 $w=1.7e-07 $l=1.25e-07 $layer=LI1_cond $X=2 $Y=3.33
+ $X2=2.125 $Y2=3.33
r232 118 120 20.877 $w=1.68e-07 $l=3.2e-07 $layer=LI1_cond $X=2 $Y=3.33 $X2=1.68
+ $Y2=3.33
r233 117 121 0.267585 $w=4.9e-07 $l=9.6e-07 $layer=MET1_cond $X=0.72 $Y=3.33
+ $X2=1.68 $Y2=3.33
r234 117 152 0.133793 $w=4.9e-07 $l=4.8e-07 $layer=MET1_cond $X=0.72 $Y=3.33
+ $X2=0.24 $Y2=3.33
r235 116 117 9.3 $w=1.7e-07 $l=1.7e-07 $layer=mcon $count=1 $X=0.72 $Y=3.33
+ $X2=0.72 $Y2=3.33
r236 114 151 4.0045 $w=1.7e-07 $l=1.85e-07 $layer=LI1_cond $X=0.37 $Y=3.33
+ $X2=0.185 $Y2=3.33
r237 114 116 22.8342 $w=1.68e-07 $l=3.5e-07 $layer=LI1_cond $X=0.37 $Y=3.33
+ $X2=0.72 $Y2=3.33
r238 112 134 0.200689 $w=4.9e-07 $l=7.2e-07 $layer=MET1_cond $X=4.8 $Y=3.33
+ $X2=5.52 $Y2=3.33
r239 112 131 0.0668963 $w=4.9e-07 $l=2.4e-07 $layer=MET1_cond $X=4.8 $Y=3.33
+ $X2=4.56 $Y2=3.33
r240 110 133 0.652406 $w=1.68e-07 $l=1e-08 $layer=LI1_cond $X=5.53 $Y=3.33
+ $X2=5.52 $Y2=3.33
r241 110 111 8.61065 $w=1.7e-07 $l=1.65e-07 $layer=LI1_cond $X=5.53 $Y=3.33
+ $X2=5.695 $Y2=3.33
r242 108 130 4.56684 $w=1.68e-07 $l=7e-08 $layer=LI1_cond $X=4.63 $Y=3.33
+ $X2=4.56 $Y2=3.33
r243 108 109 8.61065 $w=1.7e-07 $l=1.65e-07 $layer=LI1_cond $X=4.63 $Y=3.33
+ $X2=4.795 $Y2=3.33
r244 107 133 36.5348 $w=1.68e-07 $l=5.6e-07 $layer=LI1_cond $X=4.96 $Y=3.33
+ $X2=5.52 $Y2=3.33
r245 107 109 8.61065 $w=1.7e-07 $l=1.65e-07 $layer=LI1_cond $X=4.96 $Y=3.33
+ $X2=4.795 $Y2=3.33
r246 105 127 8.48128 $w=1.68e-07 $l=1.3e-07 $layer=LI1_cond $X=3.73 $Y=3.33
+ $X2=3.6 $Y2=3.33
r247 105 106 8.61065 $w=1.7e-07 $l=1.65e-07 $layer=LI1_cond $X=3.73 $Y=3.33
+ $X2=3.895 $Y2=3.33
r248 104 130 32.6203 $w=1.68e-07 $l=5e-07 $layer=LI1_cond $X=4.06 $Y=3.33
+ $X2=4.56 $Y2=3.33
r249 104 106 8.61065 $w=1.7e-07 $l=1.65e-07 $layer=LI1_cond $X=4.06 $Y=3.33
+ $X2=3.895 $Y2=3.33
r250 102 124 12.3957 $w=1.68e-07 $l=1.9e-07 $layer=LI1_cond $X=2.83 $Y=3.33
+ $X2=2.64 $Y2=3.33
r251 102 103 8.61065 $w=1.7e-07 $l=1.65e-07 $layer=LI1_cond $X=2.83 $Y=3.33
+ $X2=2.995 $Y2=3.33
r252 101 127 28.7059 $w=1.68e-07 $l=4.4e-07 $layer=LI1_cond $X=3.16 $Y=3.33
+ $X2=3.6 $Y2=3.33
r253 101 103 8.61065 $w=1.7e-07 $l=1.65e-07 $layer=LI1_cond $X=3.16 $Y=3.33
+ $X2=2.995 $Y2=3.33
r254 99 116 24.7914 $w=1.68e-07 $l=3.8e-07 $layer=LI1_cond $X=1.1 $Y=3.33
+ $X2=0.72 $Y2=3.33
r255 99 100 5.16603 $w=1.7e-07 $l=8.5e-08 $layer=LI1_cond $X=1.1 $Y=3.33
+ $X2=1.185 $Y2=3.33
r256 98 120 26.7487 $w=1.68e-07 $l=4.1e-07 $layer=LI1_cond $X=1.27 $Y=3.33
+ $X2=1.68 $Y2=3.33
r257 98 100 5.16603 $w=1.7e-07 $l=8.5e-08 $layer=LI1_cond $X=1.27 $Y=3.33
+ $X2=1.185 $Y2=3.33
r258 94 97 24.4458 $w=3.28e-07 $l=7e-07 $layer=LI1_cond $X=9.315 $Y=2.115
+ $X2=9.315 $Y2=2.815
r259 92 166 3.0435 $w=3.3e-07 $l=1.11018e-07 $layer=LI1_cond $X=9.315 $Y=3.245
+ $X2=9.375 $Y2=3.33
r260 92 97 15.0167 $w=3.28e-07 $l=4.3e-07 $layer=LI1_cond $X=9.315 $Y=3.245
+ $X2=9.315 $Y2=2.815
r261 88 91 24.4458 $w=3.28e-07 $l=7e-07 $layer=LI1_cond $X=8.395 $Y=2.115
+ $X2=8.395 $Y2=2.815
r262 86 163 0.89609 $w=3.3e-07 $l=8.5e-08 $layer=LI1_cond $X=8.395 $Y=3.245
+ $X2=8.395 $Y2=3.33
r263 86 91 15.0167 $w=3.28e-07 $l=4.3e-07 $layer=LI1_cond $X=8.395 $Y=3.245
+ $X2=8.395 $Y2=2.815
r264 82 85 24.4458 $w=3.28e-07 $l=7e-07 $layer=LI1_cond $X=7.495 $Y=2.115
+ $X2=7.495 $Y2=2.815
r265 80 160 0.89609 $w=3.3e-07 $l=8.5e-08 $layer=LI1_cond $X=7.495 $Y=3.245
+ $X2=7.495 $Y2=3.33
r266 80 85 15.0167 $w=3.28e-07 $l=4.3e-07 $layer=LI1_cond $X=7.495 $Y=3.245
+ $X2=7.495 $Y2=2.815
r267 76 79 24.4458 $w=3.28e-07 $l=7e-07 $layer=LI1_cond $X=6.595 $Y=2.115
+ $X2=6.595 $Y2=2.815
r268 74 157 0.89609 $w=3.3e-07 $l=8.5e-08 $layer=LI1_cond $X=6.595 $Y=3.245
+ $X2=6.595 $Y2=3.33
r269 74 79 15.0167 $w=3.28e-07 $l=4.3e-07 $layer=LI1_cond $X=6.595 $Y=3.245
+ $X2=6.595 $Y2=2.815
r270 73 111 8.61065 $w=1.7e-07 $l=1.65e-07 $layer=LI1_cond $X=5.86 $Y=3.33
+ $X2=5.695 $Y2=3.33
r271 72 157 8.61065 $w=1.7e-07 $l=1.65e-07 $layer=LI1_cond $X=6.43 $Y=3.33
+ $X2=6.595 $Y2=3.33
r272 72 73 37.1872 $w=1.68e-07 $l=5.7e-07 $layer=LI1_cond $X=6.43 $Y=3.33
+ $X2=5.86 $Y2=3.33
r273 68 71 24.4458 $w=3.28e-07 $l=7e-07 $layer=LI1_cond $X=5.695 $Y=2.115
+ $X2=5.695 $Y2=2.815
r274 66 111 0.89609 $w=3.3e-07 $l=8.5e-08 $layer=LI1_cond $X=5.695 $Y=3.245
+ $X2=5.695 $Y2=3.33