* File: sky130_fd_sc_hs__sdfstp_2.pex.spice
* Created: Thu Aug 27 21:09:35 2020
* Program "Calibre xRC"
* Version "v2018.4_34.26"
* Nominal Temperature: 27C
* Circuit Temperature: 27C
* 
.subckt PM_SKY130_FD_SC_HS__SDFSTP_2%SCE 2 5 7 9 10 12 15 20 21 23 24 28 32
r76 32 34 45.456 $w=3.9e-07 $l=1.65e-07 $layer=POLY_cond $X=0.61 $Y=1.635
+ $X2=0.61 $Y2=1.47
r77 28 32 72.64 $w=1.7e-07 $l=3.4e-07 $layer=licon1_POLY $count=2 $X=0.64
+ $Y=1.635 $X2=0.64 $Y2=1.635
r78 24 36 46.2115 $w=3.3e-07 $l=1.65e-07 $layer=POLY_cond $X=1.96 $Y=1.415
+ $X2=1.96 $Y2=1.25
r79 23 26 3.68782 $w=2.48e-07 $l=8e-08 $layer=LI1_cond $X=1.92 $Y=1.415 $X2=1.92
+ $Y2=1.495
r80 23 24 145.28 $w=1.7e-07 $l=1.7e-07 $layer=licon1_POLY $count=1 $X=1.96
+ $Y=1.415 $X2=1.96 $Y2=1.415
r81 21 28 9.23067 $w=1.7e-07 $l=1.20208e-07 $layer=LI1_cond $X=0.805 $Y=1.495
+ $X2=0.72 $Y2=1.58
r82 20 26 2.99516 $w=1.7e-07 $l=1.25e-07 $layer=LI1_cond $X=1.795 $Y=1.495
+ $X2=1.92 $Y2=1.495
r83 20 21 64.5882 $w=1.68e-07 $l=9.9e-07 $layer=LI1_cond $X=1.795 $Y=1.495
+ $X2=0.805 $Y2=1.495
r84 15 36 343.553 $w=1.5e-07 $l=6.7e-07 $layer=POLY_cond $X=1.94 $Y=0.58
+ $X2=1.94 $Y2=1.25
r85 10 19 10.701 $w=1.5e-07 $l=1.28e-07 $layer=POLY_cond $X=0.955 $Y=2.245
+ $X2=0.955 $Y2=2.117
r86 10 12 126.927 $w=1.5e-07 $l=3.95e-07 $layer=POLY_cond $X=0.955 $Y=2.245
+ $X2=0.955 $Y2=2.64
r87 7 17 10.701 $w=1.5e-07 $l=1.28e-07 $layer=POLY_cond $X=0.505 $Y=2.245
+ $X2=0.505 $Y2=2.117
r88 7 9 126.927 $w=1.5e-07 $l=3.95e-07 $layer=POLY_cond $X=0.505 $Y=2.245
+ $X2=0.505 $Y2=2.64
r89 5 34 456.362 $w=1.5e-07 $l=8.9e-07 $layer=POLY_cond $X=0.495 $Y=0.58
+ $X2=0.495 $Y2=1.47
r90 2 19 79.1857 $w=2.1e-07 $l=3.45e-07 $layer=POLY_cond $X=0.61 $Y=2.117
+ $X2=0.955 $Y2=2.117
r91 2 17 24.1 $w=2.1e-07 $l=1.05e-07 $layer=POLY_cond $X=0.61 $Y=2.117 $X2=0.505
+ $Y2=2.117
r92 1 32 4.27811 $w=3.9e-07 $l=3e-08 $layer=POLY_cond $X=0.61 $Y=1.665 $X2=0.61
+ $Y2=1.635
r93 1 2 46.3462 $w=3.9e-07 $l=3.25e-07 $layer=POLY_cond $X=0.61 $Y=1.665
+ $X2=0.61 $Y2=1.99
.ends

.subckt PM_SKY130_FD_SC_HS__SDFSTP_2%A_27_74# 1 2 9 10 12 15 18 21 25 26 30 33
+ 35 37
c73 30 0 7.10762e-20 $X=1.96 $Y=1.995
c74 26 0 1.86174e-19 $X=1.06 $Y=1.065
c75 21 0 1.64533e-19 $X=1.795 $Y=2.405
r76 30 31 145.28 $w=1.7e-07 $l=1.7e-07 $layer=licon1_POLY $count=1 $X=1.96
+ $Y=1.995 $X2=1.96 $Y2=1.995
r77 28 30 14.9818 $w=2.48e-07 $l=3.25e-07 $layer=LI1_cond $X=1.92 $Y=2.32
+ $X2=1.92 $Y2=1.995
r78 26 37 46.2115 $w=3.3e-07 $l=1.65e-07 $layer=POLY_cond $X=1.06 $Y=1.065
+ $X2=1.06 $Y2=0.9
r79 25 26 145.28 $w=1.7e-07 $l=1.7e-07 $layer=licon1_POLY $count=1 $X=1.06
+ $Y=1.065 $X2=1.06 $Y2=1.065
r80 23 33 0.364692 $w=3.3e-07 $l=1.65e-07 $layer=LI1_cond $X=0.445 $Y=1.065
+ $X2=0.28 $Y2=1.065
r81 23 25 21.4773 $w=3.28e-07 $l=6.15e-07 $layer=LI1_cond $X=0.445 $Y=1.065
+ $X2=1.06 $Y2=1.065
r82 22 35 2.11342 $w=1.7e-07 $l=1.27475e-07 $layer=LI1_cond $X=0.365 $Y=2.405
+ $X2=0.24 $Y2=2.4
r83 21 28 7.14316 $w=1.7e-07 $l=1.62019e-07 $layer=LI1_cond $X=1.795 $Y=2.405
+ $X2=1.92 $Y2=2.32
r84 21 22 93.2941 $w=1.68e-07 $l=1.43e-06 $layer=LI1_cond $X=1.795 $Y=2.405
+ $X2=0.365 $Y2=2.405
r85 18 35 4.3182 $w=2.1e-07 $l=1.08167e-07 $layer=LI1_cond $X=0.2 $Y=2.31
+ $X2=0.24 $Y2=2.4
r86 17 33 6.46576 $w=2.5e-07 $l=2.0106e-07 $layer=LI1_cond $X=0.2 $Y=1.23
+ $X2=0.28 $Y2=1.065
r87 17 18 70.4599 $w=1.68e-07 $l=1.08e-06 $layer=LI1_cond $X=0.2 $Y=1.23 $X2=0.2
+ $Y2=2.31
r88 13 33 6.46576 $w=2.5e-07 $l=1.65e-07 $layer=LI1_cond $X=0.28 $Y=0.9 $X2=0.28
+ $Y2=1.065
r89 13 15 11.1752 $w=3.28e-07 $l=3.2e-07 $layer=LI1_cond $X=0.28 $Y=0.9 $X2=0.28
+ $Y2=0.58
r90 10 31 52.2586 $w=2.99e-07 $l=2.7157e-07 $layer=POLY_cond $X=2.005 $Y=2.245
+ $X2=1.96 $Y2=1.995
r91 10 12 126.927 $w=1.5e-07 $l=3.95e-07 $layer=POLY_cond $X=2.005 $Y=2.245
+ $X2=2.005 $Y2=2.64
r92 9 37 102.827 $w=1.5e-07 $l=3.2e-07 $layer=POLY_cond $X=1.12 $Y=0.58 $X2=1.12
+ $Y2=0.9
r93 2 35 300 $w=1.7e-07 $l=2.15639e-07 $layer=licon1_PDIFF $count=2 $X=0.135
+ $Y=2.32 $X2=0.28 $Y2=2.475
r94 1 15 182 $w=1.7e-07 $l=2.73038e-07 $layer=licon1_NDIFF $count=1 $X=0.135
+ $Y=0.37 $X2=0.28 $Y2=0.58
.ends

.subckt PM_SKY130_FD_SC_HS__SDFSTP_2%D 1 3 6 8 12
c37 1 0 4.46515e-20 $X=1.375 $Y=2.245
r38 11 12 145.28 $w=1.7e-07 $l=1.7e-07 $layer=licon1_POLY $count=1 $X=1.42
+ $Y=1.985 $X2=1.42 $Y2=1.985
r39 8 12 7.68295 $w=3.28e-07 $l=2.2e-07 $layer=LI1_cond $X=1.2 $Y=1.985 $X2=1.42
+ $Y2=1.985
r40 4 11 38.5718 $w=2.96e-07 $l=2.05122e-07 $layer=POLY_cond $X=1.51 $Y=1.82
+ $X2=1.42 $Y2=1.985
r41 4 6 635.83 $w=1.5e-07 $l=1.24e-06 $layer=POLY_cond $X=1.51 $Y=1.82 $X2=1.51
+ $Y2=0.58
r42 1 11 54.0414 $w=2.96e-07 $l=2.81603e-07 $layer=POLY_cond $X=1.375 $Y=2.245
+ $X2=1.42 $Y2=1.985
r43 1 3 126.927 $w=1.5e-07 $l=3.95e-07 $layer=POLY_cond $X=1.375 $Y=2.245
+ $X2=1.375 $Y2=2.64
.ends

.subckt PM_SKY130_FD_SC_HS__SDFSTP_2%SCD 3 6 7 9 10 11 12 17
c41 10 0 6.51157e-20 $X=2.64 $Y=1.295
c42 7 0 2.35609e-19 $X=2.425 $Y=2.245
r43 17 19 46.3954 $w=4.95e-07 $l=1.65e-07 $layer=POLY_cond $X=2.582 $Y=1.305
+ $X2=2.582 $Y2=1.14
r44 12 21 96.8533 $w=1.7e-07 $l=2.55e-07 $layer=licon1_POLY $count=1 $X=2.665
+ $Y=1.985 $X2=2.665 $Y2=1.985
r45 11 12 16.3903 $w=2.23e-07 $l=3.2e-07 $layer=LI1_cond $X=2.667 $Y=1.665
+ $X2=2.667 $Y2=1.985
r46 10 11 18.9513 $w=2.23e-07 $l=3.7e-07 $layer=LI1_cond $X=2.667 $Y=1.295
+ $X2=2.667 $Y2=1.665
r47 10 17 96.8533 $w=1.7e-07 $l=2.55e-07 $layer=licon1_POLY $count=1 $X=2.665
+ $Y=1.305 $X2=2.665 $Y2=1.305
r48 7 21 50.9758 $w=4.07e-07 $l=3.29272e-07 $layer=POLY_cond $X=2.425 $Y=2.245
+ $X2=2.582 $Y2=1.985
r49 7 9 126.927 $w=1.5e-07 $l=3.95e-07 $layer=POLY_cond $X=2.425 $Y=2.245
+ $X2=2.425 $Y2=2.64
r50 6 21 9.65061 $w=4.95e-07 $l=8.2e-08 $layer=POLY_cond $X=2.582 $Y=1.903
+ $X2=2.582 $Y2=1.985
r51 5 17 8.86311 $w=4.95e-07 $l=8.2e-08 $layer=POLY_cond $X=2.582 $Y=1.387
+ $X2=2.582 $Y2=1.305
r52 5 6 55.7728 $w=4.95e-07 $l=5.16e-07 $layer=POLY_cond $X=2.582 $Y=1.387
+ $X2=2.582 $Y2=1.903
r53 3 19 287.149 $w=1.5e-07 $l=5.6e-07 $layer=POLY_cond $X=2.41 $Y=0.58 $X2=2.41
+ $Y2=1.14
.ends

.subckt PM_SKY130_FD_SC_HS__SDFSTP_2%CLK 1 3 4 6 7
c35 4 0 6.51157e-20 $X=3.485 $Y=1.765
r36 10 11 145.28 $w=1.7e-07 $l=1.7e-07 $layer=licon1_POLY $count=1 $X=3.42
+ $Y=1.385 $X2=3.42 $Y2=1.385
r37 7 11 5.60648 $w=3.68e-07 $l=1.8e-07 $layer=LI1_cond $X=3.6 $Y=1.365 $X2=3.42
+ $Y2=1.365
r38 4 10 77.2841 $w=2.7e-07 $l=4.11218e-07 $layer=POLY_cond $X=3.485 $Y=1.765
+ $X2=3.42 $Y2=1.385
r39 4 6 204.047 $w=1.5e-07 $l=6.35e-07 $layer=POLY_cond $X=3.485 $Y=1.765
+ $X2=3.485 $Y2=2.4
r40 1 10 38.9026 $w=2.7e-07 $l=1.74714e-07 $layer=POLY_cond $X=3.4 $Y=1.22
+ $X2=3.42 $Y2=1.385
r41 1 3 154.24 $w=1.5e-07 $l=4.8e-07 $layer=POLY_cond $X=3.4 $Y=1.22 $X2=3.4
+ $Y2=0.74
.ends

.subckt PM_SKY130_FD_SC_HS__SDFSTP_2%A_795_74# 1 2 8 9 11 12 14 18 22 23 24 26
+ 27 29 31 33 34 36 38 41 45 47 48 49 50 53 57 58 59 60 63 64 65 67 69 70 74 77
+ 78 82 88 89 97 98 99 103
c296 77 0 3.7885e-19 $X=10.555 $Y=1.97
c297 70 0 1.11484e-19 $X=10 $Y=1.64
c298 67 0 1.15295e-19 $X=7.28 $Y=2.905
c299 29 0 3.01101e-20 $X=10.13 $Y=1.085
c300 12 0 1.3233e-19 $X=5.4 $Y=1.655
c301 9 0 4.69178e-20 $X=4.975 $Y=2.21
r302 98 99 24.9528 $w=3.3e-07 $l=7.5e-08 $layer=POLY_cond $X=5.565 $Y=1.655
+ $X2=5.565 $Y2=1.58
r303 96 97 33.0969 $w=3.3e-07 $l=9e-08 $layer=POLY_cond $X=4.975 $Y=1.565
+ $X2=5.065 $Y2=1.565
r304 88 89 8.63679 $w=3.28e-07 $l=1.7e-07 $layer=LI1_cond $X=8.255 $Y=1.685
+ $X2=8.425 $Y2=1.685
r305 86 98 39.3438 $w=3.3e-07 $l=2.25e-07 $layer=POLY_cond $X=5.565 $Y=1.88
+ $X2=5.565 $Y2=1.655
r306 85 87 16.0091 $w=2.21e-07 $l=2.9e-07 $layer=LI1_cond $X=5.602 $Y=1.88
+ $X2=5.602 $Y2=2.17
r307 85 86 145.28 $w=1.7e-07 $l=1.7e-07 $layer=licon1_POLY $count=1 $X=5.565
+ $Y=1.88 $X2=5.565 $Y2=1.88
r308 78 107 40.6903 $w=3.3e-07 $l=1.65e-07 $layer=POLY_cond $X=10.555 $Y=1.97
+ $X2=10.555 $Y2=2.135
r309 77 78 145.28 $w=1.7e-07 $l=1.7e-07 $layer=licon1_POLY $count=1 $X=10.555
+ $Y=1.97 $X2=10.555 $Y2=1.97
r310 75 77 13.4452 $w=3.28e-07 $l=3.85e-07 $layer=LI1_cond $X=10.17 $Y=1.97
+ $X2=10.555 $Y2=1.97
r311 74 103 46.2115 $w=3.3e-07 $l=1.65e-07 $layer=POLY_cond $X=8.975 $Y=1.64
+ $X2=8.975 $Y2=1.475
r312 73 89 19.2074 $w=3.28e-07 $l=5.5e-07 $layer=LI1_cond $X=8.975 $Y=1.64
+ $X2=8.425 $Y2=1.64
r313 73 74 145.28 $w=1.7e-07 $l=1.7e-07 $layer=licon1_POLY $count=1 $X=8.975
+ $Y=1.64 $X2=8.975 $Y2=1.64
r314 70 75 21.5294 $w=1.68e-07 $l=3.3e-07 $layer=LI1_cond $X=10.085 $Y=1.64
+ $X2=10.085 $Y2=1.97
r315 70 73 35.7956 $w=3.28e-07 $l=1.025e-06 $layer=LI1_cond $X=10 $Y=1.64
+ $X2=8.975 $Y2=1.64
r316 69 88 58.0642 $w=1.68e-07 $l=8.9e-07 $layer=LI1_cond $X=7.365 $Y=1.81
+ $X2=8.255 $Y2=1.81
r317 66 69 6.81649 $w=1.7e-07 $l=1.20208e-07 $layer=LI1_cond $X=7.28 $Y=1.895
+ $X2=7.365 $Y2=1.81
r318 66 67 65.8931 $w=1.68e-07 $l=1.01e-06 $layer=LI1_cond $X=7.28 $Y=1.895
+ $X2=7.28 $Y2=2.905
r319 64 67 6.81649 $w=1.7e-07 $l=1.20208e-07 $layer=LI1_cond $X=7.195 $Y=2.99
+ $X2=7.28 $Y2=2.905
r320 64 65 33.2727 $w=1.68e-07 $l=5.1e-07 $layer=LI1_cond $X=7.195 $Y=2.99
+ $X2=6.685 $Y2=2.99
r321 63 65 6.81649 $w=1.7e-07 $l=1.20208e-07 $layer=LI1_cond $X=6.6 $Y=2.905
+ $X2=6.685 $Y2=2.99
r322 62 63 42.4064 $w=1.68e-07 $l=6.5e-07 $layer=LI1_cond $X=6.6 $Y=2.255
+ $X2=6.6 $Y2=2.905
r323 61 87 2.27611 $w=1.7e-07 $l=1.28e-07 $layer=LI1_cond $X=5.73 $Y=2.17
+ $X2=5.602 $Y2=2.17
r324 60 62 6.81649 $w=1.7e-07 $l=1.20208e-07 $layer=LI1_cond $X=6.515 $Y=2.17
+ $X2=6.6 $Y2=2.255
r325 60 61 51.2139 $w=1.68e-07 $l=7.85e-07 $layer=LI1_cond $X=6.515 $Y=2.17
+ $X2=5.73 $Y2=2.17
r326 58 87 5.3732 $w=2.21e-07 $l=1.04307e-07 $layer=LI1_cond $X=5.645 $Y=2.255
+ $X2=5.602 $Y2=2.17
r327 58 59 41.754 $w=1.68e-07 $l=6.4e-07 $layer=LI1_cond $X=5.645 $Y=2.255
+ $X2=5.645 $Y2=2.895
r328 57 82 0.716491 $w=1.7e-07 $l=8.5e-08 $layer=LI1_cond $X=5.085 $Y=1.015
+ $X2=5.085 $Y2=1.1
r329 56 57 38.492 $w=1.68e-07 $l=5.9e-07 $layer=LI1_cond $X=5.085 $Y=0.425
+ $X2=5.085 $Y2=1.015
r330 54 96 17.4861 $w=3.3e-07 $l=1e-07 $layer=POLY_cond $X=4.875 $Y=1.565
+ $X2=4.975 $Y2=1.565
r331 53 54 145.28 $w=1.7e-07 $l=1.7e-07 $layer=licon1_POLY $count=1 $X=4.875
+ $Y=1.565 $X2=4.875 $Y2=1.565
r332 51 82 14.5487 $w=1.68e-07 $l=2.23e-07 $layer=LI1_cond $X=4.862 $Y=1.1
+ $X2=5.085 $Y2=1.1
r333 51 53 20.5588 $w=2.03e-07 $l=3.8e-07 $layer=LI1_cond $X=4.862 $Y=1.185
+ $X2=4.862 $Y2=1.565
r334 49 59 6.81649 $w=1.7e-07 $l=1.20208e-07 $layer=LI1_cond $X=5.56 $Y=2.98
+ $X2=5.645 $Y2=2.895
r335 49 50 80.5722 $w=1.68e-07 $l=1.235e-06 $layer=LI1_cond $X=5.56 $Y=2.98
+ $X2=4.325 $Y2=2.98
r336 47 56 6.81649 $w=1.7e-07 $l=1.20208e-07 $layer=LI1_cond $X=5 $Y=0.34
+ $X2=5.085 $Y2=0.425
r337 47 48 52.1925 $w=1.68e-07 $l=8e-07 $layer=LI1_cond $X=5 $Y=0.34 $X2=4.2
+ $Y2=0.34
r338 43 50 7.14316 $w=1.7e-07 $l=1.62019e-07 $layer=LI1_cond $X=4.2 $Y=2.895
+ $X2=4.325 $Y2=2.98
r339 43 45 5.30124 $w=2.48e-07 $l=1.15e-07 $layer=LI1_cond $X=4.2 $Y=2.895
+ $X2=4.2 $Y2=2.78
r340 39 48 6.81649 $w=1.7e-07 $l=1.20208e-07 $layer=LI1_cond $X=4.115 $Y=0.425
+ $X2=4.2 $Y2=0.34
r341 39 41 5.87166 $w=1.68e-07 $l=9e-08 $layer=LI1_cond $X=4.115 $Y=0.425
+ $X2=4.115 $Y2=0.515
r342 34 36 91.58 $w=1.5e-07 $l=2.85e-07 $layer=POLY_cond $X=10.63 $Y=2.465
+ $X2=10.63 $Y2=2.75
r343 33 34 36.0588 $w=1.8e-07 $l=9e-08 $layer=POLY_cond $X=10.63 $Y=2.375
+ $X2=10.63 $Y2=2.465
r344 33 107 93.2903 $w=1.8e-07 $l=2.4e-07 $layer=POLY_cond $X=10.63 $Y=2.375
+ $X2=10.63 $Y2=2.135
r345 29 31 126.927 $w=1.5e-07 $l=3.95e-07 $layer=POLY_cond $X=10.13 $Y=1.085
+ $X2=10.13 $Y2=0.69
r346 28 38 20.4101 $w=1.5e-07 $l=7.5e-08 $layer=POLY_cond $X=9.775 $Y=1.16
+ $X2=9.7 $Y2=1.16
r347 27 29 26.9307 $w=1.5e-07 $l=1.06066e-07 $layer=POLY_cond $X=10.055 $Y=1.16
+ $X2=10.13 $Y2=1.085
r348 27 28 143.574 $w=1.5e-07 $l=2.8e-07 $layer=POLY_cond $X=10.055 $Y=1.16
+ $X2=9.775 $Y2=1.16
r349 24 38 5.30422 $w=1.5e-07 $l=7.5e-08 $layer=POLY_cond $X=9.7 $Y=1.085
+ $X2=9.7 $Y2=1.16
r350 24 26 126.927 $w=1.5e-07 $l=3.95e-07 $layer=POLY_cond $X=9.7 $Y=1.085
+ $X2=9.7 $Y2=0.69
r351 22 38 20.4101 $w=1.5e-07 $l=7.5e-08 $layer=POLY_cond $X=9.625 $Y=1.16
+ $X2=9.7 $Y2=1.16
r352 22 23 248.691 $w=1.5e-07 $l=4.85e-07 $layer=POLY_cond $X=9.625 $Y=1.16
+ $X2=9.14 $Y2=1.16
r353 20 23 26.9307 $w=1.5e-07 $l=1.06066e-07 $layer=POLY_cond $X=9.065 $Y=1.235
+ $X2=9.14 $Y2=1.16
r354 20 103 123.064 $w=1.5e-07 $l=2.4e-07 $layer=POLY_cond $X=9.065 $Y=1.235
+ $X2=9.065 $Y2=1.475
r355 18 37 330.734 $w=1.5e-07 $l=6.45e-07 $layer=POLY_cond $X=5.64 $Y=0.615
+ $X2=5.64 $Y2=1.26
r356 14 37 37.1337 $w=1.8e-07 $l=9e-08 $layer=POLY_cond $X=5.625 $Y=1.35
+ $X2=5.625 $Y2=1.26
r357 14 99 89.4032 $w=1.8e-07 $l=2.3e-07 $layer=POLY_cond $X=5.625 $Y=1.35
+ $X2=5.625 $Y2=1.58
r358 12 98 21.2229 $w=1.5e-07 $l=1.65e-07 $layer=POLY_cond $X=5.4 $Y=1.655
+ $X2=5.565 $Y2=1.655
r359 12 97 171.777 $w=1.5e-07 $l=3.35e-07 $layer=POLY_cond $X=5.4 $Y=1.655
+ $X2=5.065 $Y2=1.655
r360 9 11 91.58 $w=1.5e-07 $l=2.85e-07 $layer=POLY_cond $X=4.975 $Y=2.21
+ $X2=4.975 $Y2=2.495
r361 8 9 36.0588 $w=1.8e-07 $l=9e-08 $layer=POLY_cond $X=4.975 $Y=2.12 $X2=4.975
+ $Y2=2.21
r362 7 96 16.9318 $w=1.8e-07 $l=1.65e-07 $layer=POLY_cond $X=4.975 $Y=1.73
+ $X2=4.975 $Y2=1.565
r363 7 8 151.597 $w=1.8e-07 $l=3.9e-07 $layer=POLY_cond $X=4.975 $Y=1.73
+ $X2=4.975 $Y2=2.12
r364 2 45 600 $w=1.7e-07 $l=1.01223e-06 $layer=licon1_PDIFF $count=1 $X=4.01
+ $Y=1.84 $X2=4.16 $Y2=2.78
r365 1 41 91 $w=1.7e-07 $l=2.03286e-07 $layer=licon1_NDIFF $count=2 $X=3.975
+ $Y=0.37 $X2=4.115 $Y2=0.515
.ends

.subckt PM_SKY130_FD_SC_HS__SDFSTP_2%A_1185_55# 1 2 7 9 11 12 14 15 19 22 24 25
+ 28 32 34 36 41
c101 34 0 1.75838e-19 $X=6.27 $Y=1.815
c102 12 0 6.64302e-20 $X=6.03 $Y=2.24
c103 7 0 5.96633e-20 $X=6 $Y=0.935
r104 36 38 3.14303 $w=3.28e-07 $l=9e-08 $layer=LI1_cond $X=6.855 $Y=0.525
+ $X2=6.855 $Y2=0.615
r105 32 42 40.6903 $w=3.3e-07 $l=1.65e-07 $layer=POLY_cond $X=6.105 $Y=1.815
+ $X2=6.105 $Y2=1.98
r106 32 41 46.2115 $w=3.3e-07 $l=1.65e-07 $layer=POLY_cond $X=6.105 $Y=1.815
+ $X2=6.105 $Y2=1.65
r107 31 34 9.43135 $w=1.98e-07 $l=1.65e-07 $layer=LI1_cond $X=6.105 $Y=1.815
+ $X2=6.27 $Y2=1.815
r108 31 32 145.28 $w=1.7e-07 $l=1.7e-07 $layer=licon1_POLY $count=1 $X=6.105
+ $Y=1.815 $X2=6.105 $Y2=1.815
r109 26 28 39.1444 $w=1.68e-07 $l=6e-07 $layer=LI1_cond $X=6.94 $Y=1.915
+ $X2=6.94 $Y2=2.515
r110 24 38 4.62375 $w=1.7e-07 $l=1.65e-07 $layer=LI1_cond $X=6.69 $Y=0.615
+ $X2=6.855 $Y2=0.615
r111 24 25 24.7914 $w=1.68e-07 $l=3.8e-07 $layer=LI1_cond $X=6.69 $Y=0.615
+ $X2=6.31 $Y2=0.615
r112 22 26 6.81649 $w=1.7e-07 $l=1.20208e-07 $layer=LI1_cond $X=6.855 $Y=1.83
+ $X2=6.94 $Y2=1.915
r113 22 34 38.1658 $w=1.68e-07 $l=5.85e-07 $layer=LI1_cond $X=6.855 $Y=1.83
+ $X2=6.27 $Y2=1.83
r114 19 20 145.28 $w=1.7e-07 $l=1.7e-07 $layer=licon1_POLY $count=1 $X=6.145
+ $Y=1.1 $X2=6.145 $Y2=1.1
r115 17 25 7.76618 $w=1.7e-07 $l=2.03101e-07 $layer=LI1_cond $X=6.145 $Y=0.7
+ $X2=6.31 $Y2=0.615
r116 17 19 13.969 $w=3.28e-07 $l=4e-07 $layer=LI1_cond $X=6.145 $Y=0.7 $X2=6.145
+ $Y2=1.1
r117 15 20 38.8445 $w=3.55e-07 $l=1.93533e-07 $layer=POLY_cond $X=6.055 $Y=1.265
+ $X2=6.117 $Y2=1.1
r118 15 41 197.415 $w=1.5e-07 $l=3.85e-07 $layer=POLY_cond $X=6.055 $Y=1.265
+ $X2=6.055 $Y2=1.65
r119 12 14 91.58 $w=1.5e-07 $l=2.85e-07 $layer=POLY_cond $X=6.03 $Y=2.24
+ $X2=6.03 $Y2=2.525
r120 11 12 36.0588 $w=1.8e-07 $l=9e-08 $layer=POLY_cond $X=6.03 $Y=2.15 $X2=6.03
+ $Y2=2.24
r121 11 42 66.0806 $w=1.8e-07 $l=1.7e-07 $layer=POLY_cond $X=6.03 $Y=2.15
+ $X2=6.03 $Y2=1.98
r122 7 20 38.8445 $w=3.55e-07 $l=2.15708e-07 $layer=POLY_cond $X=6 $Y=0.935
+ $X2=6.117 $Y2=1.1
r123 7 9 102.827 $w=1.5e-07 $l=3.2e-07 $layer=POLY_cond $X=6 $Y=0.935 $X2=6
+ $Y2=0.615
r124 2 28 600 $w=1.7e-07 $l=2.64575e-07 $layer=licon1_PDIFF $count=1 $X=6.79
+ $Y=2.315 $X2=6.94 $Y2=2.515
r125 1 36 182 $w=1.7e-07 $l=2.15639e-07 $layer=licon1_NDIFF $count=1 $X=6.71
+ $Y=0.37 $X2=6.855 $Y2=0.525
.ends

.subckt PM_SKY130_FD_SC_HS__SDFSTP_2%A_991_81# 1 2 7 8 9 11 12 14 16 17 19 20 22
+ 24 25 27 28 30 34 37 39 45 47 48 52 53 54 55 58 63 65 71
c195 58 0 6.64302e-20 $X=5.24 $Y=2.265
c196 55 0 5.96633e-20 $X=6.88 $Y=0.955
c197 45 0 2.09475e-20 $X=5.425 $Y=0.615
c198 37 0 1.3233e-19 $X=5.24 $Y=2.39
c199 34 0 2.52187e-20 $X=7.07 $Y=0.94
c200 8 0 2.91132e-19 $X=6.715 $Y=2.15
r201 70 71 24.0272 $w=3.31e-07 $l=1.65e-07 $layer=POLY_cond $X=8.13 $Y=1.32
+ $X2=8.295 $Y2=1.32
r202 64 70 30.5801 $w=3.31e-07 $l=2.1e-07 $layer=POLY_cond $X=7.92 $Y=1.32
+ $X2=8.13 $Y2=1.32
r203 64 68 10.9215 $w=3.31e-07 $l=7.5e-08 $layer=POLY_cond $X=7.92 $Y=1.32
+ $X2=7.845 $Y2=1.32
r204 63 65 8.46218 $w=3.28e-07 $l=1.65e-07 $layer=LI1_cond $X=7.92 $Y=1.39
+ $X2=7.92 $Y2=1.225
r205 63 64 145.28 $w=1.7e-07 $l=1.7e-07 $layer=licon1_POLY $count=1 $X=7.92
+ $Y=1.39 $X2=7.92 $Y2=1.39
r206 56 65 12.0695 $w=1.68e-07 $l=1.85e-07 $layer=LI1_cond $X=7.84 $Y=1.04
+ $X2=7.84 $Y2=1.225
r207 54 56 6.81649 $w=1.7e-07 $l=1.20208e-07 $layer=LI1_cond $X=7.755 $Y=0.955
+ $X2=7.84 $Y2=1.04
r208 54 55 57.0856 $w=1.68e-07 $l=8.75e-07 $layer=LI1_cond $X=7.755 $Y=0.955
+ $X2=6.88 $Y2=0.955
r209 52 53 72.64 $w=1.7e-07 $l=3.4e-07 $layer=licon1_POLY $count=2 $X=6.715
+ $Y=1.065 $X2=6.715 $Y2=1.065
r210 50 52 10.826 $w=3.28e-07 $l=3.1e-07 $layer=LI1_cond $X=6.715 $Y=1.375
+ $X2=6.715 $Y2=1.065
r211 49 55 7.76618 $w=1.7e-07 $l=2.03101e-07 $layer=LI1_cond $X=6.715 $Y=1.04
+ $X2=6.88 $Y2=0.955
r212 49 52 0.873063 $w=3.28e-07 $l=2.5e-08 $layer=LI1_cond $X=6.715 $Y=1.04
+ $X2=6.715 $Y2=1.065
r213 47 50 7.76618 $w=1.7e-07 $l=2.03101e-07 $layer=LI1_cond $X=6.55 $Y=1.46
+ $X2=6.715 $Y2=1.375
r214 47 48 62.631 $w=1.68e-07 $l=9.6e-07 $layer=LI1_cond $X=6.55 $Y=1.46
+ $X2=5.59 $Y2=1.46
r215 43 48 8.15508 $w=1.68e-07 $l=1.25e-07 $layer=LI1_cond $X=5.465 $Y=1.46
+ $X2=5.59 $Y2=1.46
r216 43 59 15.984 $w=1.68e-07 $l=2.45e-07 $layer=LI1_cond $X=5.465 $Y=1.46
+ $X2=5.22 $Y2=1.46
r217 43 45 35.0343 $w=2.48e-07 $l=7.6e-07 $layer=LI1_cond $X=5.465 $Y=1.375
+ $X2=5.465 $Y2=0.615
r218 41 59 0.716491 $w=1.7e-07 $l=8.5e-08 $layer=LI1_cond $X=5.22 $Y=1.545
+ $X2=5.22 $Y2=1.46
r219 41 58 46.9733 $w=1.68e-07 $l=7.2e-07 $layer=LI1_cond $X=5.22 $Y=1.545
+ $X2=5.22 $Y2=2.265
r220 37 58 6.55365 $w=2.48e-07 $l=1.25e-07 $layer=LI1_cond $X=5.24 $Y=2.39
+ $X2=5.24 $Y2=2.265
r221 37 39 4.84026 $w=2.48e-07 $l=1.05e-07 $layer=LI1_cond $X=5.24 $Y=2.39
+ $X2=5.24 $Y2=2.495
r222 36 53 59.4528 $w=3.3e-07 $l=3.4e-07 $layer=POLY_cond $X=6.715 $Y=1.405
+ $X2=6.715 $Y2=1.065
r223 32 53 8.74306 $w=3.3e-07 $l=5e-08 $layer=POLY_cond $X=6.715 $Y=1.015
+ $X2=6.715 $Y2=1.065
r224 32 34 182.032 $w=1.5e-07 $l=3.55e-07 $layer=POLY_cond $X=6.715 $Y=0.94
+ $X2=7.07 $Y2=0.94
r225 28 71 38.5891 $w=3.31e-07 $l=3.64005e-07 $layer=POLY_cond $X=8.56 $Y=1.085
+ $X2=8.295 $Y2=1.32
r226 28 30 126.927 $w=1.5e-07 $l=3.95e-07 $layer=POLY_cond $X=8.56 $Y=1.085
+ $X2=8.56 $Y2=0.69
r227 25 27 159.06 $w=1.5e-07 $l=4.95e-07 $layer=POLY_cond $X=8.295 $Y=1.82
+ $X2=8.295 $Y2=2.315
r228 24 25 36.0588 $w=1.8e-07 $l=9e-08 $layer=POLY_cond $X=8.295 $Y=1.73
+ $X2=8.295 $Y2=1.82
r229 23 71 17.0024 $w=1.8e-07 $l=2.35e-07 $layer=POLY_cond $X=8.295 $Y=1.555
+ $X2=8.295 $Y2=1.32
r230 23 24 68.0242 $w=1.8e-07 $l=1.75e-07 $layer=POLY_cond $X=8.295 $Y=1.555
+ $X2=8.295 $Y2=1.73
r231 20 70 21.295 $w=1.5e-07 $l=2.35e-07 $layer=POLY_cond $X=8.13 $Y=1.085
+ $X2=8.13 $Y2=1.32
r232 20 22 126.927 $w=1.5e-07 $l=3.95e-07 $layer=POLY_cond $X=8.13 $Y=1.085
+ $X2=8.13 $Y2=0.69
r233 17 19 159.06 $w=1.5e-07 $l=4.95e-07 $layer=POLY_cond $X=7.845 $Y=1.82
+ $X2=7.845 $Y2=2.315
r234 16 17 36.0588 $w=1.8e-07 $l=9e-08 $layer=POLY_cond $X=7.845 $Y=1.73
+ $X2=7.845 $Y2=1.82
r235 15 68 17.0024 $w=1.8e-07 $l=2.35e-07 $layer=POLY_cond $X=7.845 $Y=1.555
+ $X2=7.845 $Y2=1.32
r236 15 16 68.0242 $w=1.8e-07 $l=1.75e-07 $layer=POLY_cond $X=7.845 $Y=1.555
+ $X2=7.845 $Y2=1.73
r237 12 34 2.83073 $w=1.5e-07 $l=7.5e-08 $layer=POLY_cond $X=7.07 $Y=0.865
+ $X2=7.07 $Y2=0.94
r238 12 14 91.58 $w=1.5e-07 $l=2.85e-07 $layer=POLY_cond $X=7.07 $Y=0.865
+ $X2=7.07 $Y2=0.58
r239 9 11 91.58 $w=1.5e-07 $l=2.85e-07 $layer=POLY_cond $X=6.715 $Y=2.24
+ $X2=6.715 $Y2=2.525
r240 8 9 36.0588 $w=1.8e-07 $l=9e-08 $layer=POLY_cond $X=6.715 $Y=2.15 $X2=6.715
+ $Y2=2.24
r241 7 36 34.7712 $w=3.3e-07 $l=1.65e-07 $layer=POLY_cond $X=6.715 $Y=1.57
+ $X2=6.715 $Y2=1.405
r242 7 8 225.452 $w=1.8e-07 $l=5.8e-07 $layer=POLY_cond $X=6.715 $Y=1.57
+ $X2=6.715 $Y2=2.15
r243 2 39 600 $w=1.7e-07 $l=2.74955e-07 $layer=licon1_PDIFF $count=1 $X=5.05
+ $Y=2.285 $X2=5.2 $Y2=2.495
r244 1 45 182 $w=1.7e-07 $l=5.65332e-07 $layer=licon1_NDIFF $count=1 $X=4.955
+ $Y=0.405 $X2=5.425 $Y2=0.615
.ends

.subckt PM_SKY130_FD_SC_HS__SDFSTP_2%SET_B 2 3 5 8 11 12 14 17 19 20 23 25 32 35
+ 43
c143 25 0 5.34496e-20 $X=11.76 $Y=1.295
c144 17 0 7.44554e-20 $X=11.59 $Y=0.58
c145 12 0 5.57434e-20 $X=11.47 $Y=2.465
c146 11 0 3.15842e-21 $X=11.47 $Y=2.375
c147 8 0 1.09822e-19 $X=7.46 $Y=0.58
r148 36 43 9.11234 $w=4.28e-07 $l=3.4e-07 $layer=LI1_cond $X=11.66 $Y=1.635
+ $X2=11.66 $Y2=1.295
r149 35 38 39.8861 $w=3.95e-07 $l=1.65e-07 $layer=POLY_cond $X=11.577 $Y=1.635
+ $X2=11.577 $Y2=1.8
r150 35 37 45.5639 $w=3.95e-07 $l=1.65e-07 $layer=POLY_cond $X=11.577 $Y=1.635
+ $X2=11.577 $Y2=1.47
r151 35 36 145.28 $w=1.7e-07 $l=1.7e-07 $layer=licon1_POLY $count=1 $X=11.61
+ $Y=1.635 $X2=11.61 $Y2=1.635
r152 30 32 15.7375 $w=3.3e-07 $l=9e-08 $layer=POLY_cond $X=7.37 $Y=1.39 $X2=7.46
+ $Y2=1.39
r153 27 30 27.9778 $w=3.3e-07 $l=1.6e-07 $layer=POLY_cond $X=7.21 $Y=1.39
+ $X2=7.37 $Y2=1.39
r154 25 43 9.3 $w=1.7e-07 $l=1.7e-07 $layer=mcon $count=1 $X=11.76 $Y=1.295
+ $X2=11.76 $Y2=1.295
r155 23 30 145.28 $w=1.7e-07 $l=1.7e-07 $layer=licon1_POLY $count=1 $X=7.37
+ $Y=1.39 $X2=7.37 $Y2=1.39
r156 22 23 9.3 $w=1.7e-07 $l=1.7e-07 $layer=mcon $count=1 $X=7.44 $Y=1.295
+ $X2=7.44 $Y2=1.295
r157 20 22 0.115467 $w=2.3e-07 $l=1.45e-07 $layer=MET1_cond $X=7.585 $Y=1.295
+ $X2=7.44 $Y2=1.295
r158 19 25 0.115467 $w=2.3e-07 $l=1.45e-07 $layer=MET1_cond $X=11.615 $Y=1.295
+ $X2=11.76 $Y2=1.295
r159 19 20 4.98761 $w=1.4e-07 $l=4.03e-06 $layer=MET1_cond $X=11.615 $Y=1.295
+ $X2=7.585 $Y2=1.295
r160 17 37 456.362 $w=1.5e-07 $l=8.9e-07 $layer=POLY_cond $X=11.59 $Y=0.58
+ $X2=11.59 $Y2=1.47
r161 12 14 91.58 $w=1.5e-07 $l=2.85e-07 $layer=POLY_cond $X=11.47 $Y=2.465
+ $X2=11.47 $Y2=2.75
r162 11 12 36.0588 $w=1.8e-07 $l=9e-08 $layer=POLY_cond $X=11.47 $Y=2.375
+ $X2=11.47 $Y2=2.465
r163 11 38 223.508 $w=1.8e-07 $l=5.75e-07 $layer=POLY_cond $X=11.47 $Y=2.375
+ $X2=11.47 $Y2=1.8
r164 6 32 21.2229 $w=1.5e-07 $l=1.65e-07 $layer=POLY_cond $X=7.46 $Y=1.225
+ $X2=7.46 $Y2=1.39
r165 6 8 330.734 $w=1.5e-07 $l=6.45e-07 $layer=POLY_cond $X=7.46 $Y=1.225
+ $X2=7.46 $Y2=0.58
r166 3 5 91.58 $w=1.5e-07 $l=2.85e-07 $layer=POLY_cond $X=7.21 $Y=2.24 $X2=7.21
+ $Y2=2.525
r167 2 3 36.0588 $w=1.8e-07 $l=9e-08 $layer=POLY_cond $X=7.21 $Y=2.15 $X2=7.21
+ $Y2=2.24
r168 1 27 16.9318 $w=1.8e-07 $l=1.65e-07 $layer=POLY_cond $X=7.21 $Y=1.555
+ $X2=7.21 $Y2=1.39
r169 1 2 231.282 $w=1.8e-07 $l=5.95e-07 $layer=POLY_cond $X=7.21 $Y=1.555
+ $X2=7.21 $Y2=2.15
.ends

.subckt PM_SKY130_FD_SC_HS__SDFSTP_2%A_608_74# 1 2 9 11 13 15 16 19 20 21 22 23
+ 26 28 30 31 34 35 38 39 40 41 43 45 48 50 51 52 54 57 60 61 62 67 70
c207 54 0 1.37364e-19 $X=9.44 $Y=3.13
c208 35 0 2.15509e-19 $X=9.44 $Y=2.045
c209 20 0 2.09475e-20 $X=4.805 $Y=1.115
r210 71 72 4.79261 $w=3.52e-07 $l=3.5e-08 $layer=POLY_cond $X=3.9 $Y=1.557
+ $X2=3.935 $Y2=1.557
r211 68 72 15.7472 $w=3.52e-07 $l=1.15e-07 $layer=POLY_cond $X=4.05 $Y=1.557
+ $X2=3.935 $Y2=1.557
r212 67 68 145.28 $w=1.7e-07 $l=1.7e-07 $layer=licon1_POLY $count=1 $X=4.05
+ $Y=1.515 $X2=4.05 $Y2=1.515
r213 65 67 10.6514 $w=3.28e-07 $l=3.05e-07 $layer=LI1_cond $X=4.05 $Y=1.82
+ $X2=4.05 $Y2=1.515
r214 62 64 5.9927 $w=2.48e-07 $l=1.3e-07 $layer=LI1_cond $X=3.13 $Y=1.945
+ $X2=3.26 $Y2=1.945
r215 61 65 6.98653 $w=2.5e-07 $l=2.18746e-07 $layer=LI1_cond $X=3.885 $Y=1.945
+ $X2=4.05 $Y2=1.82
r216 61 64 28.8111 $w=2.48e-07 $l=6.25e-07 $layer=LI1_cond $X=3.885 $Y=1.945
+ $X2=3.26 $Y2=1.945
r217 60 62 7.14316 $w=2.5e-07 $l=1.62019e-07 $layer=LI1_cond $X=3.045 $Y=1.82
+ $X2=3.13 $Y2=1.945
r218 60 70 52.8449 $w=1.68e-07 $l=8.1e-07 $layer=LI1_cond $X=3.045 $Y=1.82
+ $X2=3.045 $Y2=1.01
r219 55 70 9.49412 $w=3.88e-07 $l=1.95e-07 $layer=LI1_cond $X=3.155 $Y=0.815
+ $X2=3.155 $Y2=1.01
r220 55 57 8.86495 $w=3.88e-07 $l=3e-07 $layer=LI1_cond $X=3.155 $Y=0.815
+ $X2=3.155 $Y2=0.515
r221 50 51 58.3064 $w=1.8e-07 $l=1.5e-07 $layer=POLY_cond $X=4.44 $Y=1.97
+ $X2=4.44 $Y2=2.12
r222 46 48 443.543 $w=1.5e-07 $l=8.65e-07 $layer=POLY_cond $X=10.63 $Y=1.445
+ $X2=10.63 $Y2=0.58
r223 43 45 159.06 $w=1.5e-07 $l=4.95e-07 $layer=POLY_cond $X=9.89 $Y=3.035
+ $X2=9.89 $Y2=2.54
r224 42 54 20.4101 $w=1.5e-07 $l=9.94987e-08 $layer=POLY_cond $X=9.53 $Y=3.15
+ $X2=9.44 $Y2=3.13
r225 41 43 26.9307 $w=1.5e-07 $l=1.53542e-07 $layer=POLY_cond $X=9.8 $Y=3.15
+ $X2=9.89 $Y2=3.035
r226 41 42 138.447 $w=1.5e-07 $l=2.7e-07 $layer=POLY_cond $X=9.8 $Y=3.15
+ $X2=9.53 $Y2=3.15
r227 39 46 26.9307 $w=1.5e-07 $l=1.06066e-07 $layer=POLY_cond $X=10.555 $Y=1.52
+ $X2=10.63 $Y2=1.445
r228 39 40 525.585 $w=1.5e-07 $l=1.025e-06 $layer=POLY_cond $X=10.555 $Y=1.52
+ $X2=9.53 $Y2=1.52
r229 36 54 5.30422 $w=1.5e-07 $l=9.5e-08 $layer=POLY_cond $X=9.44 $Y=3.035
+ $X2=9.44 $Y2=3.13
r230 36 38 253.819 $w=1.5e-07 $l=4.95e-07 $layer=POLY_cond $X=9.44 $Y=3.035
+ $X2=9.44 $Y2=2.54
r231 35 38 253.819 $w=1.5e-07 $l=4.95e-07 $layer=POLY_cond $X=9.44 $Y=2.045
+ $X2=9.44 $Y2=2.54
r232 34 35 36.0588 $w=1.8e-07 $l=9e-08 $layer=POLY_cond $X=9.44 $Y=1.955
+ $X2=9.44 $Y2=2.045
r233 33 40 27.2212 $w=1.5e-07 $l=1.21861e-07 $layer=POLY_cond $X=9.44 $Y=1.595
+ $X2=9.53 $Y2=1.52
r234 33 34 139.935 $w=1.8e-07 $l=3.6e-07 $layer=POLY_cond $X=9.44 $Y=1.595
+ $X2=9.44 $Y2=1.955
r235 32 52 7.1379 $w=1.5e-07 $l=9e-08 $layer=POLY_cond $X=5.6 $Y=3.15 $X2=5.51
+ $Y2=3.15
r236 31 54 20.4101 $w=1.5e-07 $l=9.94987e-08 $layer=POLY_cond $X=9.35 $Y=3.15
+ $X2=9.44 $Y2=3.13
r237 31 32 1922.87 $w=1.5e-07 $l=3.75e-06 $layer=POLY_cond $X=9.35 $Y=3.15
+ $X2=5.6 $Y2=3.15
r238 28 52 95.4401 $w=1.8e-07 $l=2.4e-07 $layer=POLY_cond $X=5.51 $Y=2.91
+ $X2=5.51 $Y2=3.15
r239 28 30 91.58 $w=1.5e-07 $l=2.85e-07 $layer=POLY_cond $X=5.51 $Y=2.91
+ $X2=5.51 $Y2=2.625
r240 24 26 217.926 $w=1.5e-07 $l=4.25e-07 $layer=POLY_cond $X=4.88 $Y=1.04
+ $X2=4.88 $Y2=0.615
r241 22 52 7.1379 $w=1.5e-07 $l=9e-08 $layer=POLY_cond $X=5.42 $Y=3.15 $X2=5.51
+ $Y2=3.15
r242 22 23 456.362 $w=1.5e-07 $l=8.9e-07 $layer=POLY_cond $X=5.42 $Y=3.15
+ $X2=4.53 $Y2=3.15
r243 20 24 26.9307 $w=1.5e-07 $l=1.06066e-07 $layer=POLY_cond $X=4.805 $Y=1.115
+ $X2=4.88 $Y2=1.04
r244 20 21 156.394 $w=1.5e-07 $l=3.05e-07 $layer=POLY_cond $X=4.805 $Y=1.115
+ $X2=4.5 $Y2=1.115
r245 19 23 26.9307 $w=1.5e-07 $l=1.06066e-07 $layer=POLY_cond $X=4.455 $Y=3.075
+ $X2=4.53 $Y2=3.15
r246 19 51 489.691 $w=1.5e-07 $l=9.55e-07 $layer=POLY_cond $X=4.455 $Y=3.075
+ $X2=4.455 $Y2=2.12
r247 16 68 51.3494 $w=3.52e-07 $l=3.75e-07 $layer=POLY_cond $X=4.425 $Y=1.557
+ $X2=4.05 $Y2=1.557
r248 16 50 148.702 $w=1.5e-07 $l=2.9e-07 $layer=POLY_cond $X=4.425 $Y=1.68
+ $X2=4.425 $Y2=1.97
r249 15 16 22.7654 $w=1.5e-07 $l=2.07e-07 $layer=POLY_cond $X=4.425 $Y=1.35
+ $X2=4.425 $Y2=1.557
r250 14 21 26.9307 $w=1.5e-07 $l=1.06066e-07 $layer=POLY_cond $X=4.425 $Y=1.19
+ $X2=4.5 $Y2=1.115
r251 14 15 82.0426 $w=1.5e-07 $l=1.6e-07 $layer=POLY_cond $X=4.425 $Y=1.19
+ $X2=4.425 $Y2=1.35
r252 11 72 22.7654 $w=1.5e-07 $l=2.08e-07 $layer=POLY_cond $X=3.935 $Y=1.765
+ $X2=3.935 $Y2=1.557
r253 11 13 204.047 $w=1.5e-07 $l=6.35e-07 $layer=POLY_cond $X=3.935 $Y=1.765
+ $X2=3.935 $Y2=2.4
r254 7 71 22.7654 $w=1.5e-07 $l=2.07e-07 $layer=POLY_cond $X=3.9 $Y=1.35 $X2=3.9
+ $Y2=1.557
r255 7 9 312.787 $w=1.5e-07 $l=6.1e-07 $layer=POLY_cond $X=3.9 $Y=1.35 $X2=3.9
+ $Y2=0.74
r256 2 64 600 $w=1.7e-07 $l=2.01494e-07 $layer=licon1_PDIFF $count=1 $X=3.125
+ $Y=1.84 $X2=3.26 $Y2=1.985
r257 1 57 91 $w=1.7e-07 $l=2.05061e-07 $layer=licon1_NDIFF $count=2 $X=3.04
+ $Y=0.37 $X2=3.185 $Y2=0.515
.ends

.subckt PM_SKY130_FD_SC_HS__SDFSTP_2%A_2186_367# 1 2 7 8 11 12 14 17 18 22 24 25
+ 28 31 32 36 38 40
c111 36 0 6.56335e-20 $X=11.11 $Y=1.065
c112 25 0 5.57434e-20 $X=12.31 $Y=2.395
c113 17 0 3.1683e-20 $X=11.02 $Y=1.835
c114 8 0 1.88308e-19 $X=11.02 $Y=2.375
c115 7 0 1.557e-19 $X=11.02 $Y=1.925
r116 36 41 46.2115 $w=3.3e-07 $l=1.65e-07 $layer=POLY_cond $X=11.11 $Y=1.065
+ $X2=11.11 $Y2=1.23
r117 36 40 46.2115 $w=3.3e-07 $l=1.65e-07 $layer=POLY_cond $X=11.11 $Y=1.065
+ $X2=11.11 $Y2=0.9
r118 35 36 145.28 $w=1.7e-07 $l=1.7e-07 $layer=licon1_POLY $count=1 $X=11.11
+ $Y=1.065 $X2=11.11 $Y2=1.065
r119 32 35 6.63528 $w=3.28e-07 $l=1.9e-07 $layer=LI1_cond $X=11.11 $Y=0.875
+ $X2=11.11 $Y2=1.065
r120 30 38 3.87901 $w=2.37e-07 $l=1.14039e-07 $layer=LI1_cond $X=12.72 $Y=0.96
+ $X2=12.652 $Y2=0.875
r121 30 31 88.0749 $w=1.68e-07 $l=1.35e-06 $layer=LI1_cond $X=12.72 $Y=0.96
+ $X2=12.72 $Y2=2.31
r122 26 38 3.87901 $w=2.37e-07 $l=8.5e-08 $layer=LI1_cond $X=12.652 $Y=0.79
+ $X2=12.652 $Y2=0.875
r123 26 28 7.93485 $w=3.03e-07 $l=2.1e-07 $layer=LI1_cond $X=12.652 $Y=0.79
+ $X2=12.652 $Y2=0.58
r124 24 31 6.81649 $w=1.7e-07 $l=1.20208e-07 $layer=LI1_cond $X=12.635 $Y=2.395
+ $X2=12.72 $Y2=2.31
r125 24 25 21.2032 $w=1.68e-07 $l=3.25e-07 $layer=LI1_cond $X=12.635 $Y=2.395
+ $X2=12.31 $Y2=2.395
r126 20 25 7.14316 $w=1.7e-07 $l=1.62019e-07 $layer=LI1_cond $X=12.185 $Y=2.48
+ $X2=12.31 $Y2=2.395
r127 20 22 12.4464 $w=2.48e-07 $l=2.7e-07 $layer=LI1_cond $X=12.185 $Y=2.48
+ $X2=12.185 $Y2=2.75
r128 19 32 4.62375 $w=1.7e-07 $l=1.65e-07 $layer=LI1_cond $X=11.275 $Y=0.875
+ $X2=11.11 $Y2=0.875
r129 18 38 2.57001 $w=1.7e-07 $l=1.52e-07 $layer=LI1_cond $X=12.5 $Y=0.875
+ $X2=12.652 $Y2=0.875
r130 18 19 79.9198 $w=1.68e-07 $l=1.225e-06 $layer=LI1_cond $X=12.5 $Y=0.875
+ $X2=11.275 $Y2=0.875
r131 17 41 310.223 $w=1.5e-07 $l=6.05e-07 $layer=POLY_cond $X=11.035 $Y=1.835
+ $X2=11.035 $Y2=1.23
r132 12 14 91.58 $w=1.5e-07 $l=2.85e-07 $layer=POLY_cond $X=11.02 $Y=2.465
+ $X2=11.02 $Y2=2.75
r133 11 40 102.827 $w=1.5e-07 $l=3.2e-07 $layer=POLY_cond $X=11.02 $Y=0.58
+ $X2=11.02 $Y2=0.9
r134 8 12 36.0588 $w=1.8e-07 $l=9e-08 $layer=POLY_cond $X=11.02 $Y=2.375
+ $X2=11.02 $Y2=2.465
r135 7 17 37.1337 $w=1.8e-07 $l=9e-08 $layer=POLY_cond $X=11.02 $Y=1.925
+ $X2=11.02 $Y2=1.835