* File: sky130_fd_sc_hs__sdfstp_4.pex.spice
* Created: Tue Sep  1 20:23:23 2020
* Program "Calibre xRC"
* Version "v2018.4_34.26"
* Nominal Temperature: 27C
* Circuit Temperature: 27C
* 
.subckt PM_SKY130_FD_SC_HS__SDFSTP_4%SCE 3 5 7 8 10 13 15 16 18 23 27 31
r78 23 27 72.64 $w=1.7e-07 $l=3.4e-07 $layer=licon1_POLY $count=2 $X=0.69
+ $Y=1.645 $X2=0.69 $Y2=1.645
r79 19 31 22.732 $w=3.3e-07 $l=1.3e-07 $layer=POLY_cond $X=1.88 $Y=1.415
+ $X2=2.01 $Y2=1.415
r80 18 21 2.7938 $w=3.28e-07 $l=8e-08 $layer=LI1_cond $X=1.88 $Y=1.415 $X2=1.88
+ $Y2=1.495
r81 18 19 145.28 $w=1.7e-07 $l=1.7e-07 $layer=licon1_POLY $count=1 $X=1.88
+ $Y=1.415 $X2=1.88 $Y2=1.415
r82 16 23 9.23067 $w=1.7e-07 $l=1.72337e-07 $layer=LI1_cond $X=0.855 $Y=1.495
+ $X2=0.72 $Y2=1.58
r83 15 21 4.62375 $w=1.7e-07 $l=1.65e-07 $layer=LI1_cond $X=1.715 $Y=1.495
+ $X2=1.88 $Y2=1.495
r84 15 16 56.107 $w=1.68e-07 $l=8.6e-07 $layer=LI1_cond $X=1.715 $Y=1.495
+ $X2=0.855 $Y2=1.495
r85 11 31 21.2229 $w=1.5e-07 $l=1.65e-07 $layer=POLY_cond $X=2.01 $Y=1.25
+ $X2=2.01 $Y2=1.415
r86 11 13 343.553 $w=1.5e-07 $l=6.7e-07 $layer=POLY_cond $X=2.01 $Y=1.25
+ $X2=2.01 $Y2=0.58
r87 8 27 102.927 $w=2.88e-07 $l=7.03562e-07 $layer=POLY_cond $X=0.945 $Y=2.245
+ $X2=0.72 $Y2=1.645
r88 8 10 126.927 $w=1.5e-07 $l=3.95e-07 $layer=POLY_cond $X=0.945 $Y=2.245
+ $X2=0.945 $Y2=2.64
r89 5 27 102.927 $w=2.88e-07 $l=7.03562e-07 $layer=POLY_cond $X=0.495 $Y=2.245
+ $X2=0.72 $Y2=1.645
r90 5 7 126.927 $w=1.5e-07 $l=3.95e-07 $layer=POLY_cond $X=0.495 $Y=2.245
+ $X2=0.495 $Y2=2.64
r91 1 27 43.9382 $w=5.76e-07 $l=2.96226e-07 $layer=POLY_cond $X=0.495 $Y=1.48
+ $X2=0.72 $Y2=1.645
r92 1 3 461.489 $w=1.5e-07 $l=9e-07 $layer=POLY_cond $X=0.495 $Y=1.48 $X2=0.495
+ $Y2=0.58
.ends

.subckt PM_SKY130_FD_SC_HS__SDFSTP_4%A_27_74# 1 2 9 10 12 15 18 21 25 26 30 33
+ 35 37
c74 30 0 7.33056e-20 $X=1.95 $Y=1.995
c75 21 0 1.69735e-19 $X=1.785 $Y=2.405
r76 30 31 145.28 $w=1.7e-07 $l=1.7e-07 $layer=licon1_POLY $count=1 $X=1.95
+ $Y=1.995 $X2=1.95 $Y2=1.995
r77 28 30 14.4055 $w=2.58e-07 $l=3.25e-07 $layer=LI1_cond $X=1.915 $Y=2.32
+ $X2=1.915 $Y2=1.995
r78 26 37 46.2115 $w=3.3e-07 $l=1.65e-07 $layer=POLY_cond $X=0.975 $Y=1.075
+ $X2=0.975 $Y2=0.91
r79 25 26 145.28 $w=1.7e-07 $l=1.7e-07 $layer=licon1_POLY $count=1 $X=0.975
+ $Y=1.075 $X2=0.975 $Y2=1.075
r80 23 33 0.94211 $w=3.3e-07 $l=1.7e-07 $layer=LI1_cond $X=0.445 $Y=1.075
+ $X2=0.275 $Y2=1.075
r81 23 25 18.5089 $w=3.28e-07 $l=5.3e-07 $layer=LI1_cond $X=0.445 $Y=1.075
+ $X2=0.975 $Y2=1.075
r82 22 35 2.76166 $w=1.7e-07 $l=1.25e-07 $layer=LI1_cond $X=0.355 $Y=2.405
+ $X2=0.23 $Y2=2.405
r83 21 28 7.21222 $w=1.7e-07 $l=1.67183e-07 $layer=LI1_cond $X=1.785 $Y=2.405
+ $X2=1.915 $Y2=2.32
r84 21 22 93.2941 $w=1.68e-07 $l=1.43e-06 $layer=LI1_cond $X=1.785 $Y=2.405
+ $X2=0.355 $Y2=2.405
r85 18 35 3.70735 $w=2.5e-07 $l=8.5e-08 $layer=LI1_cond $X=0.23 $Y=2.32 $X2=0.23
+ $Y2=2.405
r86 17 33 5.66538 $w=2.95e-07 $l=1.86145e-07 $layer=LI1_cond $X=0.23 $Y=1.24
+ $X2=0.275 $Y2=1.075
r87 17 18 49.7855 $w=2.48e-07 $l=1.08e-06 $layer=LI1_cond $X=0.23 $Y=1.24
+ $X2=0.23 $Y2=2.32
r88 13 33 5.66538 $w=2.95e-07 $l=1.65e-07 $layer=LI1_cond $X=0.275 $Y=0.91
+ $X2=0.275 $Y2=1.075
r89 13 15 11.1855 $w=3.38e-07 $l=3.3e-07 $layer=LI1_cond $X=0.275 $Y=0.91
+ $X2=0.275 $Y2=0.58
r90 10 31 52.2586 $w=2.99e-07 $l=2.7157e-07 $layer=POLY_cond $X=1.995 $Y=2.245
+ $X2=1.95 $Y2=1.995
r91 10 12 126.927 $w=1.5e-07 $l=3.95e-07 $layer=POLY_cond $X=1.995 $Y=2.245
+ $X2=1.995 $Y2=2.64
r92 9 37 106.04 $w=1.5e-07 $l=3.3e-07 $layer=POLY_cond $X=1.035 $Y=0.58
+ $X2=1.035 $Y2=0.91
r93 2 35 300 $w=1.7e-07 $l=2.01494e-07 $layer=licon1_PDIFF $count=2 $X=0.135
+ $Y=2.32 $X2=0.27 $Y2=2.465
r94 1 15 182 $w=1.7e-07 $l=2.73038e-07 $layer=licon1_NDIFF $count=1 $X=0.135
+ $Y=0.37 $X2=0.28 $Y2=0.58
.ends

.subckt PM_SKY130_FD_SC_HS__SDFSTP_4%D 1 3 6 8 12
c36 1 0 4.43302e-20 $X=1.365 $Y=2.245
r37 11 12 145.28 $w=1.7e-07 $l=1.7e-07 $layer=licon1_POLY $count=1 $X=1.41
+ $Y=1.985 $X2=1.41 $Y2=1.985
r38 8 12 7.33373 $w=3.28e-07 $l=2.1e-07 $layer=LI1_cond $X=1.2 $Y=1.985 $X2=1.41
+ $Y2=1.985
r39 4 11 38.5718 $w=2.96e-07 $l=1.72337e-07 $layer=POLY_cond $X=1.425 $Y=1.82
+ $X2=1.41 $Y2=1.985
r40 4 6 635.83 $w=1.5e-07 $l=1.24e-06 $layer=POLY_cond $X=1.425 $Y=1.82
+ $X2=1.425 $Y2=0.58
r41 1 11 54.0414 $w=2.96e-07 $l=2.81603e-07 $layer=POLY_cond $X=1.365 $Y=2.245
+ $X2=1.41 $Y2=1.985
r42 1 3 126.927 $w=1.5e-07 $l=3.95e-07 $layer=POLY_cond $X=1.365 $Y=2.245
+ $X2=1.365 $Y2=2.64
.ends

.subckt PM_SKY130_FD_SC_HS__SDFSTP_4%SCD 3 6 7 9 10 11 12 17
c42 10 0 6.61961e-20 $X=2.64 $Y=1.295
c43 7 0 2.43041e-19 $X=2.415 $Y=2.245
r44 21 22 96.8533 $w=1.7e-07 $l=2.55e-07 $layer=licon1_POLY $count=1 $X=2.695
+ $Y=1.945 $X2=2.695 $Y2=1.945
r45 17 19 47.5561 $w=5.35e-07 $l=1.65e-07 $layer=POLY_cond $X=2.592 $Y=1.265
+ $X2=2.592 $Y2=1.1
r46 12 22 3.70428 $w=2.78e-07 $l=9e-08 $layer=LI1_cond $X=2.695 $Y=2.035
+ $X2=2.695 $Y2=1.945
r47 11 22 11.5244 $w=2.78e-07 $l=2.8e-07 $layer=LI1_cond $X=2.695 $Y=1.665
+ $X2=2.695 $Y2=1.945
r48 10 11 16.4635 $w=2.78e-07 $l=4e-07 $layer=LI1_cond $X=2.695 $Y=1.265
+ $X2=2.695 $Y2=1.665
r49 10 17 96.8533 $w=1.7e-07 $l=2.55e-07 $layer=licon1_POLY $count=1 $X=2.695
+ $Y=1.265 $X2=2.695 $Y2=1.265
r50 7 21 55.5708 $w=4.15e-07 $l=3.78286e-07 $layer=POLY_cond $X=2.415 $Y=2.245
+ $X2=2.592 $Y2=1.945
r51 7 9 126.927 $w=1.5e-07 $l=3.95e-07 $layer=POLY_cond $X=2.415 $Y=2.245
+ $X2=2.415 $Y2=2.64
r52 6 21 11.7419 $w=5.35e-07 $l=1.02e-07 $layer=POLY_cond $X=2.592 $Y=1.843
+ $X2=2.592 $Y2=1.945
r53 5 17 10.2006 $w=5.35e-07 $l=1.02e-07 $layer=POLY_cond $X=2.592 $Y=1.367
+ $X2=2.592 $Y2=1.265
r54 5 6 47.6026 $w=5.35e-07 $l=4.76e-07 $layer=POLY_cond $X=2.592 $Y=1.367
+ $X2=2.592 $Y2=1.843
r55 3 19 266.638 $w=1.5e-07 $l=5.2e-07 $layer=POLY_cond $X=2.4 $Y=0.58 $X2=2.4
+ $Y2=1.1
.ends

.subckt PM_SKY130_FD_SC_HS__SDFSTP_4%CLK 1 3 4 6 7
c34 4 0 6.61961e-20 $X=3.51 $Y=1.765
r35 10 11 145.28 $w=1.7e-07 $l=1.7e-07 $layer=licon1_POLY $count=1 $X=3.49
+ $Y=1.385 $X2=3.49 $Y2=1.385
r36 7 11 3.42618 $w=3.68e-07 $l=1.1e-07 $layer=LI1_cond $X=3.6 $Y=1.365 $X2=3.49
+ $Y2=1.365
r37 4 10 77.2841 $w=2.7e-07 $l=3.89872e-07 $layer=POLY_cond $X=3.51 $Y=1.765
+ $X2=3.49 $Y2=1.385
r38 4 6 204.047 $w=1.5e-07 $l=6.35e-07 $layer=POLY_cond $X=3.51 $Y=1.765
+ $X2=3.51 $Y2=2.4
r39 1 10 38.9026 $w=2.7e-07 $l=1.88348e-07 $layer=POLY_cond $X=3.44 $Y=1.22
+ $X2=3.49 $Y2=1.385
r40 1 3 154.24 $w=1.5e-07 $l=4.8e-07 $layer=POLY_cond $X=3.44 $Y=1.22 $X2=3.44
+ $Y2=0.74
.ends

.subckt PM_SKY130_FD_SC_HS__SDFSTP_4%A_803_74# 1 2 8 9 11 12 16 20 21 22 24 25
+ 27 29 31 32 34 36 37 40 42 43 44 48 54 56 57 60 61 62 64 65 66 67 69 72 76 77
+ 79 80 83 84 89 90 95 99 106 108
c298 99 0 3.98141e-20 $X=10.6 $Y=1.97
c299 79 0 2.67659e-20 $X=5.665 $Y=1.94
c300 66 0 1.23112e-19 $X=7.545 $Y=2.035
c301 32 0 9.10184e-20 $X=10.44 $Y=2.465
c302 31 0 1.98549e-19 $X=10.44 $Y=2.375
c303 21 0 1.22616e-19 $X=9.375 $Y=1.16
r304 105 106 33.0969 $w=3.3e-07 $l=9e-08 $layer=POLY_cond $X=5.09 $Y=1.565
+ $X2=5.18 $Y2=1.565
r305 99 110 27.9778 $w=3.3e-07 $l=1.6e-07 $layer=POLY_cond $X=10.6 $Y=1.97
+ $X2=10.44 $Y2=1.97
r306 98 99 145.28 $w=1.7e-07 $l=1.7e-07 $layer=licon1_POLY $count=1 $X=10.6
+ $Y=1.97 $X2=10.6 $Y2=1.97
r307 95 98 4.36531 $w=3.28e-07 $l=1.25e-07 $layer=LI1_cond $X=10.6 $Y=1.845
+ $X2=10.6 $Y2=1.97
r308 92 93 0.69845 $w=3.28e-07 $l=2e-08 $layer=LI1_cond $X=9.21 $Y=1.845
+ $X2=9.21 $Y2=1.865
r309 90 108 46.2115 $w=3.3e-07 $l=1.65e-07 $layer=POLY_cond $X=9.21 $Y=1.615
+ $X2=9.21 $Y2=1.45
r310 89 92 8.03218 $w=3.28e-07 $l=2.3e-07 $layer=LI1_cond $X=9.21 $Y=1.615
+ $X2=9.21 $Y2=1.845
r311 89 90 145.28 $w=1.7e-07 $l=1.7e-07 $layer=licon1_POLY $count=1 $X=9.21
+ $Y=1.615 $X2=9.21 $Y2=1.615
r312 84 86 11.0909 $w=1.68e-07 $l=1.7e-07 $layer=LI1_cond $X=7.81 $Y=1.865
+ $X2=7.81 $Y2=2.035
r313 79 82 8.51388 $w=2.88e-07 $l=1.65e-07 $layer=LI1_cond $X=5.685 $Y=1.94
+ $X2=5.685 $Y2=2.105
r314 79 80 145.28 $w=1.7e-07 $l=1.7e-07 $layer=licon1_POLY $count=1 $X=5.665
+ $Y=1.94 $X2=5.665 $Y2=1.94
r315 76 77 8.76268 $w=2.78e-07 $l=1.7e-07 $layer=LI1_cond $X=4.945 $Y=1.095
+ $X2=4.945 $Y2=1.265
r316 72 74 6.9845 $w=3.28e-07 $l=2e-07 $layer=LI1_cond $X=4.235 $Y=2.78
+ $X2=4.235 $Y2=2.98
r317 70 92 4.62375 $w=1.7e-07 $l=1.65e-07 $layer=LI1_cond $X=9.375 $Y=1.845
+ $X2=9.21 $Y2=1.845
r318 69 95 4.62375 $w=1.7e-07 $l=1.65e-07 $layer=LI1_cond $X=10.435 $Y=1.845
+ $X2=10.6 $Y2=1.845
r319 69 70 69.1551 $w=1.68e-07 $l=1.06e-06 $layer=LI1_cond $X=10.435 $Y=1.845
+ $X2=9.375 $Y2=1.845
r320 68 84 0.716491 $w=1.7e-07 $l=8.5e-08 $layer=LI1_cond $X=7.895 $Y=1.865
+ $X2=7.81 $Y2=1.865
r321 67 93 4.62375 $w=1.7e-07 $l=1.65e-07 $layer=LI1_cond $X=9.045 $Y=1.865
+ $X2=9.21 $Y2=1.865
r322 67 68 75.0267 $w=1.68e-07 $l=1.15e-06 $layer=LI1_cond $X=9.045 $Y=1.865
+ $X2=7.895 $Y2=1.865
r323 65 86 0.716491 $w=1.7e-07 $l=8.5e-08 $layer=LI1_cond $X=7.725 $Y=2.035
+ $X2=7.81 $Y2=2.035
r324 65 66 11.7433 $w=1.68e-07 $l=1.8e-07 $layer=LI1_cond $X=7.725 $Y=2.035
+ $X2=7.545 $Y2=2.035
r325 63 66 6.81649 $w=1.7e-07 $l=1.20208e-07 $layer=LI1_cond $X=7.46 $Y=2.12
+ $X2=7.545 $Y2=2.035
r326 63 64 50.5615 $w=1.68e-07 $l=7.75e-07 $layer=LI1_cond $X=7.46 $Y=2.12
+ $X2=7.46 $Y2=2.895
r327 61 64 6.81649 $w=1.7e-07 $l=1.20208e-07 $layer=LI1_cond $X=7.375 $Y=2.98
+ $X2=7.46 $Y2=2.895
r328 61 62 33.2727 $w=1.68e-07 $l=5.1e-07 $layer=LI1_cond $X=7.375 $Y=2.98
+ $X2=6.865 $Y2=2.98
r329 60 62 6.81649 $w=1.7e-07 $l=1.20208e-07 $layer=LI1_cond $X=6.78 $Y=2.895
+ $X2=6.865 $Y2=2.98
r330 59 60 28.3797 $w=1.68e-07 $l=4.35e-07 $layer=LI1_cond $X=6.78 $Y=2.46
+ $X2=6.78 $Y2=2.895
r331 58 83 1.34256 $w=1.7e-07 $l=8.5e-08 $layer=LI1_cond $X=5.83 $Y=2.375
+ $X2=5.745 $Y2=2.375
r332 57 59 6.81649 $w=1.7e-07 $l=1.20208e-07 $layer=LI1_cond $X=6.695 $Y=2.375
+ $X2=6.78 $Y2=2.46
r333 57 58 56.4332 $w=1.68e-07 $l=8.65e-07 $layer=LI1_cond $X=6.695 $Y=2.375
+ $X2=5.83 $Y2=2.375
r334 55 83 5.16603 $w=1.7e-07 $l=8.5e-08 $layer=LI1_cond $X=5.745 $Y=2.46
+ $X2=5.745 $Y2=2.375
r335 55 56 28.3797 $w=1.68e-07 $l=4.35e-07 $layer=LI1_cond $X=5.745 $Y=2.46
+ $X2=5.745 $Y2=2.895
r336 54 83 5.16603 $w=1.7e-07 $l=8.5e-08 $layer=LI1_cond $X=5.745 $Y=2.29
+ $X2=5.745 $Y2=2.375
r337 54 82 12.0695 $w=1.68e-07 $l=1.85e-07 $layer=LI1_cond $X=5.745 $Y=2.29
+ $X2=5.745 $Y2=2.105
r338 51 76 43.7112 $w=1.68e-07 $l=6.7e-07 $layer=LI1_cond $X=5.055 $Y=0.425
+ $X2=5.055 $Y2=1.095
r339 49 105 33.2236 $w=3.3e-07 $l=1.9e-07 $layer=POLY_cond $X=4.9 $Y=1.565
+ $X2=5.09 $Y2=1.565
r340 48 77 12.3476 $w=2.78e-07 $l=3e-07 $layer=LI1_cond $X=4.89 $Y=1.565
+ $X2=4.89 $Y2=1.265
r341 48 49 145.28 $w=1.7e-07 $l=1.7e-07 $layer=licon1_POLY $count=1 $X=4.9
+ $Y=1.565 $X2=4.9 $Y2=1.565
r342 45 74 4.62375 $w=1.7e-07 $l=1.65e-07 $layer=LI1_cond $X=4.4 $Y=2.98
+ $X2=4.235 $Y2=2.98
r343 44 56 6.81649 $w=1.7e-07 $l=1.20208e-07 $layer=LI1_cond $X=5.66 $Y=2.98
+ $X2=5.745 $Y2=2.895
r344 44 45 82.2032 $w=1.68e-07 $l=1.26e-06 $layer=LI1_cond $X=5.66 $Y=2.98
+ $X2=4.4 $Y2=2.98
r345 42 51 6.81649 $w=1.7e-07 $l=1.20208e-07 $layer=LI1_cond $X=4.97 $Y=0.34
+ $X2=5.055 $Y2=0.425
r346 42 43 47.6257 $w=1.68e-07 $l=7.3e-07 $layer=LI1_cond $X=4.97 $Y=0.34
+ $X2=4.24 $Y2=0.34
r347 38 43 6.81649 $w=1.7e-07 $l=1.20208e-07 $layer=LI1_cond $X=4.155 $Y=0.425
+ $X2=4.24 $Y2=0.34
r348 38 40 5.87166 $w=1.68e-07 $l=9e-08 $layer=LI1_cond $X=4.155 $Y=0.425
+ $X2=4.155 $Y2=0.515
r349 35 80 36.7209 $w=3.3e-07 $l=2.1e-07 $layer=POLY_cond $X=5.665 $Y=1.73
+ $X2=5.665 $Y2=1.94
r350 35 36 13.5877 $w=2.4e-07 $l=7.5e-08 $layer=POLY_cond $X=5.665 $Y=1.73
+ $X2=5.665 $Y2=1.655
r351 32 34 91.58 $w=1.5e-07 $l=2.85e-07 $layer=POLY_cond $X=10.44 $Y=2.465
+ $X2=10.44 $Y2=2.75
r352 31 32 36.0588 $w=1.8e-07 $l=9e-08 $layer=POLY_cond $X=10.44 $Y=2.375
+ $X2=10.44 $Y2=2.465
r353 30 110 16.9318 $w=1.8e-07 $l=1.65e-07 $layer=POLY_cond $X=10.44 $Y=2.135
+ $X2=10.44 $Y2=1.97
r354 30 31 93.2903 $w=1.8e-07 $l=2.4e-07 $layer=POLY_cond $X=10.44 $Y=2.135
+ $X2=10.44 $Y2=2.375
r355 27 29 126.927 $w=1.5e-07 $l=3.95e-07 $layer=POLY_cond $X=10.16 $Y=1.085
+ $X2=10.16 $Y2=0.69
r356 26 37 20.4101 $w=1.5e-07 $l=7.5e-08 $layer=POLY_cond $X=9.805 $Y=1.16
+ $X2=9.73 $Y2=1.16
r357 25 27 26.9307 $w=1.5e-07 $l=1.06066e-07 $layer=POLY_cond $X=10.085 $Y=1.16
+ $X2=10.16 $Y2=1.085
r358 25 26 143.574 $w=1.5e-07 $l=2.8e-07 $layer=POLY_cond $X=10.085 $Y=1.16
+ $X2=9.805 $Y2=1.16
r359 22 37 5.30422 $w=1.5e-07 $l=7.5e-08 $layer=POLY_cond $X=9.73 $Y=1.085
+ $X2=9.73 $Y2=1.16
r360 22 24 126.927 $w=1.5e-07 $l=3.95e-07 $layer=POLY_cond $X=9.73 $Y=1.085
+ $X2=9.73 $Y2=0.69
r361 20 37 20.4101 $w=1.5e-07 $l=7.5e-08 $layer=POLY_cond $X=9.655 $Y=1.16
+ $X2=9.73 $Y2=1.16
r362 20 21 143.574 $w=1.5e-07 $l=2.8e-07 $layer=POLY_cond $X=9.655 $Y=1.16
+ $X2=9.375 $Y2=1.16
r363 18 21 26.9307 $w=1.5e-07 $l=1.06066e-07 $layer=POLY_cond $X=9.3 $Y=1.235
+ $X2=9.375 $Y2=1.16
r364 18 108 110.245 $w=1.5e-07 $l=2.15e-07 $layer=POLY_cond $X=9.3 $Y=1.235
+ $X2=9.3 $Y2=1.45
r365 14 36 13.5877 $w=2.4e-07 $l=8.66025e-08 $layer=POLY_cond $X=5.69 $Y=1.58
+ $X2=5.665 $Y2=1.655
r366 14 16 494.819 $w=1.5e-07 $l=9.65e-07 $layer=POLY_cond $X=5.69 $Y=1.58
+ $X2=5.69 $Y2=0.615
r367 12 36 12.1617 $w=1.5e-07 $l=1.65e-07 $layer=POLY_cond $X=5.5 $Y=1.655
+ $X2=5.665 $Y2=1.655
r368 12 106 164.085 $w=1.5e-07 $l=3.2e-07 $layer=POLY_cond $X=5.5 $Y=1.655
+ $X2=5.18 $Y2=1.655
r369 9 11 91.58 $w=1.5e-07 $l=2.85e-07 $layer=POLY_cond $X=5.09 $Y=2.21 $X2=5.09
+ $Y2=2.495
r370 8 9 36.0588 $w=1.8e-07 $l=9e-08 $layer=POLY_cond $X=5.09 $Y=2.12 $X2=5.09
+ $Y2=2.21
r371 7 105 16.9318 $w=1.8e-07 $l=1.65e-07 $layer=POLY_cond $X=5.09 $Y=1.73
+ $X2=5.09 $Y2=1.565
r372 7 8 151.597 $w=1.8e-07 $l=3.9e-07 $layer=POLY_cond $X=5.09 $Y=1.73 $X2=5.09
+ $Y2=2.12
r373 2 72 600 $w=1.7e-07 $l=1.03518e-06 $layer=licon1_PDIFF $count=1 $X=4.035
+ $Y=1.84 $X2=4.235 $Y2=2.78
r374 1 40 91 $w=1.7e-07 $l=2.03286e-07 $layer=licon1_NDIFF $count=2 $X=4.015
+ $Y=0.37 $X2=4.155 $Y2=0.515
.ends

.subckt PM_SKY130_FD_SC_HS__SDFSTP_4%A_1201_55# 1 2 9 10 12 14 15 17 21 25 27 31
+ 34 40
c86 14 0 2.67659e-20 $X=6.26 $Y=1.78
r87 34 37 3.14303 $w=3.28e-07 $l=9e-08 $layer=LI1_cond $X=6.205 $Y=1.945
+ $X2=6.205 $Y2=2.035
r88 34 35 145.28 $w=1.7e-07 $l=1.7e-07 $layer=licon1_POLY $count=1 $X=6.205
+ $Y=1.945 $X2=6.205 $Y2=1.945
r89 31 41 46.2115 $w=3.3e-07 $l=1.65e-07 $layer=POLY_cond $X=6.17 $Y=1.1
+ $X2=6.17 $Y2=1.265
r90 31 40 46.2115 $w=3.3e-07 $l=1.65e-07 $layer=POLY_cond $X=6.17 $Y=1.1
+ $X2=6.17 $Y2=0.935
r91 30 31 145.28 $w=1.7e-07 $l=1.7e-07 $layer=licon1_POLY $count=1 $X=6.17
+ $Y=1.1 $X2=6.17 $Y2=1.1
r92 27 30 8.55602 $w=3.28e-07 $l=2.45e-07 $layer=LI1_cond $X=6.17 $Y=0.855
+ $X2=6.17 $Y2=1.1
r93 23 25 24.4652 $w=1.68e-07 $l=3.75e-07 $layer=LI1_cond $X=7.12 $Y=2.12
+ $X2=7.12 $Y2=2.495
r94 19 21 6.63528 $w=3.28e-07 $l=1.9e-07 $layer=LI1_cond $X=6.935 $Y=0.77
+ $X2=6.935 $Y2=0.58
r95 18 37 4.62375 $w=1.7e-07 $l=1.65e-07 $layer=LI1_cond $X=6.37 $Y=2.035
+ $X2=6.205 $Y2=2.035
r96 17 23 6.81649 $w=1.7e-07 $l=1.20208e-07 $layer=LI1_cond $X=7.035 $Y=2.035
+ $X2=7.12 $Y2=2.12
r97 17 18 43.385 $w=1.68e-07 $l=6.65e-07 $layer=LI1_cond $X=7.035 $Y=2.035
+ $X2=6.37 $Y2=2.035
r98 16 27 4.62375 $w=1.7e-07 $l=1.65e-07 $layer=LI1_cond $X=6.335 $Y=0.855
+ $X2=6.17 $Y2=0.855
r99 15 19 7.76618 $w=1.7e-07 $l=2.03101e-07 $layer=LI1_cond $X=6.77 $Y=0.855
+ $X2=6.935 $Y2=0.77
r100 15 16 28.3797 $w=1.68e-07 $l=4.35e-07 $layer=LI1_cond $X=6.77 $Y=0.855
+ $X2=6.335 $Y2=0.855
r101 14 35 38.578 $w=2.95e-07 $l=1.90526e-07 $layer=POLY_cond $X=6.26 $Y=1.78
+ $X2=6.205 $Y2=1.945
r102 14 41 264.074 $w=1.5e-07 $l=5.15e-07 $layer=POLY_cond $X=6.26 $Y=1.78
+ $X2=6.26 $Y2=1.265
r103 10 35 54.9169 $w=2.95e-07 $l=3.00167e-07 $layer=POLY_cond $X=6.13 $Y=2.21
+ $X2=6.205 $Y2=1.945
r104 10 12 91.58 $w=1.5e-07 $l=2.85e-07 $layer=POLY_cond $X=6.13 $Y=2.21
+ $X2=6.13 $Y2=2.495
r105 9 40 102.827 $w=1.5e-07 $l=3.2e-07 $layer=POLY_cond $X=6.08 $Y=0.615
+ $X2=6.08 $Y2=0.935
r106 2 25 600 $w=1.7e-07 $l=2.86182e-07 $layer=licon1_PDIFF $count=1 $X=6.94
+ $Y=2.285 $X2=7.12 $Y2=2.495
r107 1 21 182 $w=1.7e-07 $l=2.73038e-07 $layer=licon1_NDIFF $count=1 $X=6.79
+ $Y=0.37 $X2=6.935 $Y2=0.58
.ends

.subckt PM_SKY130_FD_SC_HS__SDFSTP_4%A_1017_81# 1 2 8 9 11 12 14 16 17 19 20 22
+ 24 25 27 28 30 34 35 38 40 44 46 48 50 51 52 56 59 69
c174 25 0 7.58781e-20 $X=8.475 $Y=1.79
c175 8 0 1.23112e-19 $X=6.865 $Y=2.12
r176 68 69 27.3299 $w=2.91e-07 $l=1.65e-07 $layer=POLY_cond $X=8.31 $Y=1.267
+ $X2=8.475 $Y2=1.267
r177 63 68 34.7835 $w=2.91e-07 $l=2.1e-07 $layer=POLY_cond $X=8.1 $Y=1.267
+ $X2=8.31 $Y2=1.267
r178 63 66 12.4227 $w=2.91e-07 $l=7.5e-08 $layer=POLY_cond $X=8.1 $Y=1.267
+ $X2=8.025 $Y2=1.267
r179 62 63 145.28 $w=1.7e-07 $l=1.7e-07 $layer=licon1_POLY $count=1 $X=8.1
+ $Y=1.285 $X2=8.1 $Y2=1.285
r180 59 62 3.14303 $w=3.28e-07 $l=9e-08 $layer=LI1_cond $X=8.1 $Y=1.195 $X2=8.1
+ $Y2=1.285
r181 55 57 8.55602 $w=3.28e-07 $l=2.45e-07 $layer=LI1_cond $X=6.79 $Y=1.275
+ $X2=6.79 $Y2=1.52
r182 55 56 72.64 $w=1.7e-07 $l=3.4e-07 $layer=licon1_POLY $count=2 $X=6.79
+ $Y=1.275 $X2=6.79 $Y2=1.275
r183 52 55 2.7938 $w=3.28e-07 $l=8e-08 $layer=LI1_cond $X=6.79 $Y=1.195 $X2=6.79
+ $Y2=1.275
r184 49 52 4.62375 $w=1.7e-07 $l=1.65e-07 $layer=LI1_cond $X=6.955 $Y=1.195
+ $X2=6.79 $Y2=1.195
r185 48 59 4.62375 $w=1.7e-07 $l=1.65e-07 $layer=LI1_cond $X=7.935 $Y=1.195
+ $X2=8.1 $Y2=1.195
r186 48 49 63.9358 $w=1.68e-07 $l=9.8e-07 $layer=LI1_cond $X=7.935 $Y=1.195
+ $X2=6.955 $Y2=1.195
r187 47 50 2.76166 $w=1.7e-07 $l=2.2e-07 $layer=LI1_cond $X=5.64 $Y=1.52
+ $X2=5.42 $Y2=1.52
r188 46 57 4.62375 $w=1.7e-07 $l=1.65e-07 $layer=LI1_cond $X=6.625 $Y=1.52
+ $X2=6.79 $Y2=1.52
r189 46 47 64.262 $w=1.68e-07 $l=9.85e-07 $layer=LI1_cond $X=6.625 $Y=1.52
+ $X2=5.64 $Y2=1.52
r190 42 50 3.70735 $w=2.5e-07 $l=1.09087e-07 $layer=LI1_cond $X=5.475 $Y=1.435
+ $X2=5.42 $Y2=1.52
r191 42 44 28.6365 $w=3.28e-07 $l=8.2e-07 $layer=LI1_cond $X=5.475 $Y=1.435
+ $X2=5.475 $Y2=0.615
r192 38 51 7.52792 $w=2.78e-07 $l=1.4e-07 $layer=LI1_cond $X=5.34 $Y=2.415
+ $X2=5.34 $Y2=2.275
r193 38 40 3.49849 $w=2.78e-07 $l=8.5e-08 $layer=LI1_cond $X=5.34 $Y=2.415
+ $X2=5.34 $Y2=2.5
r194 36 50 3.70735 $w=2.5e-07 $l=1.72337e-07 $layer=LI1_cond $X=5.285 $Y=1.605
+ $X2=5.42 $Y2=1.52
r195 36 51 43.7112 $w=1.68e-07 $l=6.7e-07 $layer=LI1_cond $X=5.285 $Y=1.605
+ $X2=5.285 $Y2=2.275
r196 34 56 59.4528 $w=3.3e-07 $l=3.4e-07 $layer=POLY_cond $X=6.79 $Y=1.615
+ $X2=6.79 $Y2=1.275
r197 34 35 40.6903 $w=3.3e-07 $l=1.65e-07 $layer=POLY_cond $X=6.79 $Y=1.615
+ $X2=6.79 $Y2=1.78
r198 28 69 43.8935 $w=2.91e-07 $l=3.44173e-07 $layer=POLY_cond $X=8.74 $Y=1.085
+ $X2=8.475 $Y2=1.267
r199 28 30 126.927 $w=1.5e-07 $l=3.95e-07 $layer=POLY_cond $X=8.74 $Y=1.085
+ $X2=8.74 $Y2=0.69
r200 25 27 159.06 $w=1.5e-07 $l=4.95e-07 $layer=POLY_cond $X=8.475 $Y=1.79
+ $X2=8.475 $Y2=2.285
r201 24 25 36.0588 $w=1.8e-07 $l=9e-08 $layer=POLY_cond $X=8.475 $Y=1.7
+ $X2=8.475 $Y2=1.79
r202 23 69 14.0159 $w=1.8e-07 $l=1.83e-07 $layer=POLY_cond $X=8.475 $Y=1.45
+ $X2=8.475 $Y2=1.267
r203 23 24 97.1774 $w=1.8e-07 $l=2.5e-07 $layer=POLY_cond $X=8.475 $Y=1.45
+ $X2=8.475 $Y2=1.7
r204 20 68 18.2534 $w=1.5e-07 $l=1.82e-07 $layer=POLY_cond $X=8.31 $Y=1.085
+ $X2=8.31 $Y2=1.267
r205 20 22 126.927 $w=1.5e-07 $l=3.95e-07 $layer=POLY_cond $X=8.31 $Y=1.085
+ $X2=8.31 $Y2=0.69
r206 17 19 159.06 $w=1.5e-07 $l=4.95e-07 $layer=POLY_cond $X=8.025 $Y=1.79
+ $X2=8.025 $Y2=2.285
r207 16 17 36.0588 $w=1.8e-07 $l=9e-08 $layer=POLY_cond $X=8.025 $Y=1.7
+ $X2=8.025 $Y2=1.79
r208 15 66 14.0159 $w=1.8e-07 $l=1.83e-07 $layer=POLY_cond $X=8.025 $Y=1.45
+ $X2=8.025 $Y2=1.267
r209 15 16 97.1774 $w=1.8e-07 $l=2.5e-07 $layer=POLY_cond $X=8.025 $Y=1.45
+ $X2=8.025 $Y2=1.7
r210 12 56 79.2329 $w=2.19e-07 $l=5.61872e-07 $layer=POLY_cond $X=7.15 $Y=0.865
+ $X2=6.79 $Y2=1.275
r211 12 14 91.58 $w=1.5e-07 $l=2.85e-07 $layer=POLY_cond $X=7.15 $Y=0.865
+ $X2=7.15 $Y2=0.58
r212 9 11 91.58 $w=1.5e-07 $l=2.85e-07 $layer=POLY_cond $X=6.865 $Y=2.21
+ $X2=6.865 $Y2=2.495
r213 8 9 36.0588 $w=1.8e-07 $l=9e-08 $layer=POLY_cond $X=6.865 $Y=2.12 $X2=6.865
+ $Y2=2.21
r214 8 35 132.161 $w=1.8e-07 $l=3.4e-07 $layer=POLY_cond $X=6.865 $Y=2.12
+ $X2=6.865 $Y2=1.78
r215 2 40 600 $w=1.7e-07 $l=2.80134e-07 $layer=licon1_PDIFF $count=1 $X=5.165
+ $Y=2.285 $X2=5.315 $Y2=2.5
r216 1 44 182 $w=1.7e-07 $l=4.83735e-07 $layer=licon1_NDIFF $count=1 $X=5.085
+ $Y=0.405 $X2=5.475 $Y2=0.615
.ends

.subckt PM_SKY130_FD_SC_HS__SDFSTP_4%SET_B 2 3 5 8 11 13 14 16 19 21 22 23 28 34
+ 35 38 39
c143 28 0 1.12416e-19 $X=11.76 $Y=1.665
c144 22 0 6.13349e-20 $X=11.615 $Y=1.665
c145 11 0 7.95967e-20 $X=11.612 $Y=1.953
c146 3 0 1.49656e-19 $X=7.345 $Y=2.21
r147 38 40 45.1558 $w=3.75e-07 $l=1.65e-07 $layer=POLY_cond $X=11.612 $Y=1.635
+ $X2=11.612 $Y2=1.47
r148 38 39 72.64 $w=1.7e-07 $l=3.4e-07 $layer=licon1_POLY $count=2 $X=11.635
+ $Y=1.635 $X2=11.635 $Y2=1.635
r149 33 35 31.475 $w=3.3e-07 $l=1.8e-07 $layer=POLY_cond $X=7.36 $Y=1.615
+ $X2=7.54 $Y2=1.615
r150 33 34 145.28 $w=1.7e-07 $l=1.7e-07 $layer=licon1_POLY $count=1 $X=7.36
+ $Y=1.615 $X2=7.36 $Y2=1.615
r151 30 33 2.62292 $w=3.3e-07 $l=1.5e-08 $layer=POLY_cond $X=7.345 $Y=1.615
+ $X2=7.36 $Y2=1.615
r152 28 39 9.3 $w=1.7e-07 $l=1.7e-07 $layer=mcon $count=1 $X=11.76 $Y=1.665
+ $X2=11.76 $Y2=1.665
r153 25 34 9.3 $w=1.7e-07 $l=1.7e-07 $layer=mcon $count=1 $X=7.44 $Y=1.665
+ $X2=7.44 $Y2=1.665
r154 23 25 0.115467 $w=2.3e-07 $l=1.45e-07 $layer=MET1_cond $X=7.585 $Y=1.665
+ $X2=7.44 $Y2=1.665
r155 22 28 0.115467 $w=2.3e-07 $l=1.45e-07 $layer=MET1_cond $X=11.615 $Y=1.665
+ $X2=11.76 $Y2=1.665
r156 22 23 4.98761 $w=1.4e-07 $l=4.03e-06 $layer=MET1_cond $X=11.615 $Y=1.665
+ $X2=7.585 $Y2=1.665
r157 19 40 456.362 $w=1.5e-07 $l=8.9e-07 $layer=POLY_cond $X=11.6 $Y=0.58
+ $X2=11.6 $Y2=1.47
r158 14 16 91.58 $w=1.5e-07 $l=2.85e-07 $layer=POLY_cond $X=11.515 $Y=2.465
+ $X2=11.515 $Y2=2.75
r159 13 14 36.0588 $w=1.8e-07 $l=9e-08 $layer=POLY_cond $X=11.515 $Y=2.375
+ $X2=11.515 $Y2=2.465
r160 13 21 91.3468 $w=1.8e-07 $l=2.35e-07 $layer=POLY_cond $X=11.515 $Y=2.375
+ $X2=11.515 $Y2=2.14
r161 11 21 42.8297 $w=3.75e-07 $l=1.87e-07 $layer=POLY_cond $X=11.612 $Y=1.953
+ $X2=11.612 $Y2=2.14
r162 10 38 3.26277 $w=3.75e-07 $l=2.2e-08 $layer=POLY_cond $X=11.612 $Y=1.657
+ $X2=11.612 $Y2=1.635
r163 10 11 43.8991 $w=3.75e-07 $l=2.96e-07 $layer=POLY_cond $X=11.612 $Y=1.657
+ $X2=11.612 $Y2=1.953
r164 6 35 21.2229 $w=1.5e-07 $l=1.65e-07 $layer=POLY_cond $X=7.54 $Y=1.45
+ $X2=7.54 $Y2=1.615
r165 6 8 446.106 $w=1.5e-07 $l=8.7e-07 $layer=POLY_cond $X=7.54 $Y=1.45 $X2=7.54
+ $Y2=0.58
r166 3 5 91.58 $w=1.5e-07 $l=2.85e-07 $layer=POLY_cond $X=7.345 $Y=2.21
+ $X2=7.345 $Y2=2.495
r167 2 3 36.0588 $w=1.8e-07 $l=9e-08 $layer=POLY_cond $X=7.345 $Y=2.12 $X2=7.345
+ $Y2=2.21
r168 1 30 16.9318 $w=1.8e-07 $l=1.65e-07 $layer=POLY_cond $X=7.345 $Y=1.78
+ $X2=7.345 $Y2=1.615
r169 1 2 132.161 $w=1.8e-07 $l=3.4e-07 $layer=POLY_cond $X=7.345 $Y=1.78
+ $X2=7.345 $Y2=2.12
.ends

.subckt PM_SKY130_FD_SC_HS__SDFSTP_4%A_616_74# 1 2 9 11 13 15 16 17 19 20 21 22
+ 23 26 28 30 31 33 35 36 39 40 43 44 45 48 52 54 56 59 62 63 64 69 72
c200 19 0 1.33164e-19 $X=4.53 $Y=3.075
c201 11 0 1.2825e-19 $X=3.96 $Y=1.765
r202 73 74 2.73088 $w=3.53e-07 $l=2e-08 $layer=POLY_cond $X=3.94 $Y=1.557
+ $X2=3.96 $Y2=1.557
r203 70 74 12.289 $w=3.53e-07 $l=9e-08 $layer=POLY_cond $X=4.05 $Y=1.557
+ $X2=3.96 $Y2=1.557
r204 69 70 145.28 $w=1.7e-07 $l=1.7e-07 $layer=licon1_POLY $count=1 $X=4.05
+ $Y=1.515 $X2=4.05 $Y2=1.515
r205 67 69 10.6514 $w=3.28e-07 $l=3.05e-07 $layer=LI1_cond $X=4.05 $Y=1.82
+ $X2=4.05 $Y2=1.515
r206 64 66 5.07075 $w=2.48e-07 $l=1.1e-07 $layer=LI1_cond $X=3.175 $Y=1.945
+ $X2=3.285 $Y2=1.945
r207 63 67 6.98653 $w=2.5e-07 $l=2.18746e-07 $layer=LI1_cond $X=3.885 $Y=1.945
+ $X2=4.05 $Y2=1.82
r208 63 66 27.6586 $w=2.48e-07 $l=6e-07 $layer=LI1_cond $X=3.885 $Y=1.945
+ $X2=3.285 $Y2=1.945
r209 62 64 7.14316 $w=2.5e-07 $l=1.62019e-07 $layer=LI1_cond $X=3.09 $Y=1.82
+ $X2=3.175 $Y2=1.945
r210 62 72 52.8449 $w=1.68e-07 $l=8.1e-07 $layer=LI1_cond $X=3.09 $Y=1.82
+ $X2=3.09 $Y2=1.01
r211 57 72 9.39714 $w=3.83e-07 $l=1.92e-07 $layer=LI1_cond $X=3.197 $Y=0.818
+ $X2=3.197 $Y2=1.01
r212 57 59 9.06988 $w=3.83e-07 $l=3.03e-07 $layer=LI1_cond $X=3.197 $Y=0.818
+ $X2=3.197 $Y2=0.515
r213 50 52 41.0213 $w=1.5e-07 $l=8e-08 $layer=POLY_cond $X=4.45 $Y=2.045
+ $X2=4.53 $Y2=2.045
r214 46 48 443.543 $w=1.5e-07 $l=8.65e-07 $layer=POLY_cond $X=10.67 $Y=1.445
+ $X2=10.67 $Y2=0.58
r215 44 46 26.9307 $w=1.5e-07 $l=1.06066e-07 $layer=POLY_cond $X=10.595 $Y=1.52
+ $X2=10.67 $Y2=1.445
r216 44 45 292.277 $w=1.5e-07 $l=5.7e-07 $layer=POLY_cond $X=10.595 $Y=1.52
+ $X2=10.025 $Y2=1.52
r217 41 43 253.819 $w=1.5e-07 $l=4.95e-07 $layer=POLY_cond $X=9.935 $Y=3.035
+ $X2=9.935 $Y2=2.54
r218 40 43 253.819 $w=1.5e-07 $l=4.95e-07 $layer=POLY_cond $X=9.935 $Y=2.045
+ $X2=9.935 $Y2=2.54
r219 39 40 36.0588 $w=1.8e-07 $l=9e-08 $layer=POLY_cond $X=9.935 $Y=1.955
+ $X2=9.935 $Y2=2.045
r220 38 45 22.7899 $w=1.97e-07 $l=2.05122e-07 $layer=POLY_cond $X=9.935 $Y=1.685
+ $X2=10.025 $Y2=1.52
r221 38 39 104.952 $w=1.8e-07 $l=2.7e-07 $layer=POLY_cond $X=9.935 $Y=1.685
+ $X2=9.935 $Y2=1.955
r222 37 56 20.4101 $w=1.5e-07 $l=9.94987e-08 $layer=POLY_cond $X=9.575 $Y=3.15
+ $X2=9.485 $Y2=3.13
r223 36 41 26.9307 $w=1.5e-07 $l=1.53542e-07 $layer=POLY_cond $X=9.845 $Y=3.15
+ $X2=9.935 $Y2=3.035
r224 36 37 138.447 $w=1.5e-07 $l=2.7e-07 $layer=POLY_cond $X=9.845 $Y=3.15
+ $X2=9.575 $Y2=3.15
r225 33 56 5.30422 $w=1.5e-07 $l=9.5e-08 $layer=POLY_cond $X=9.485 $Y=3.035
+ $X2=9.485 $Y2=3.13
r226 33 35 159.06 $w=1.5e-07 $l=4.95e-07 $layer=POLY_cond $X=9.485 $Y=3.035
+ $X2=9.485 $Y2=2.54
r227 32 54 7.1379 $w=1.5e-07 $l=9e-08 $layer=POLY_cond $X=5.715 $Y=3.15
+ $X2=5.625 $Y2=3.15
r228 31 56 20.4101 $w=1.5e-07 $l=9.94987e-08 $layer=POLY_cond $X=9.395 $Y=3.15
+ $X2=9.485 $Y2=3.13
r229 31 32 1886.98 $w=1.5e-07 $l=3.68e-06 $layer=POLY_cond $X=9.395 $Y=3.15
+ $X2=5.715 $Y2=3.15
r230 28 54 72.1175 $w=1.8e-07 $l=1.8e-07 $layer=POLY_cond $X=5.625 $Y=2.97
+ $X2=5.625 $Y2=3.15
r231 28 30 91.58 $w=1.5e-07 $l=2.85e-07 $layer=POLY_cond $X=5.625 $Y=2.97
+ $X2=5.625 $Y2=2.685
r232 24 26 217.926 $w=1.5e-07 $l=4.25e-07 $layer=POLY_cond $X=5.01 $Y=1.04
+ $X2=5.01 $Y2=0.615
r233 22 54 7.1379 $w=1.5e-07 $l=9e-08 $layer=POLY_cond $X=5.535 $Y=3.15
+ $X2=5.625 $Y2=3.15
r234 22 23 476.872 $w=1.5e-07 $l=9.3e-07 $layer=POLY_cond $X=5.535 $Y=3.15
+ $X2=4.605 $Y2=3.15
r235 20 24 26.9307 $w=1.5e-07 $l=1.06066e-07 $layer=POLY_cond $X=4.935 $Y=1.115
+ $X2=5.01 $Y2=1.04
r236 20 21 210.234 $w=1.5e-07 $l=4.1e-07 $layer=POLY_cond $X=4.935 $Y=1.115
+ $X2=4.525 $Y2=1.115
r237 19 23 26.9307 $w=1.5e-07 $l=1.06066e-07 $layer=POLY_cond $X=4.53 $Y=3.075
+ $X2=4.605 $Y2=3.15
r238 18 52 2.83073 $w=1.5e-07 $l=7.5e-08 $layer=POLY_cond $X=4.53 $Y=2.12
+ $X2=4.53 $Y2=2.045
r239 18 19 489.691 $w=1.5e-07 $l=9.55e-07 $layer=POLY_cond $X=4.53 $Y=2.12
+ $X2=4.53 $Y2=3.075
r240 17 50 2.83073 $w=1.5e-07 $l=7.5e-08 $layer=POLY_cond $X=4.45 $Y=1.97
+ $X2=4.45 $Y2=2.045
r241 16 70 54.6176 $w=3.53e-07 $l=4e-07 $layer=POLY_cond $X=4.45 $Y=1.557
+ $X2=4.05 $Y2=1.557
r242 16 17 148.702 $w=1.5e-07 $l=2.9e-07 $layer=POLY_cond $X=4.45 $Y=1.68
+ $X2=4.45 $Y2=1.97
r243 15 16 22.8335 $w=1.5e-07 $l=2.07e-07 $layer=POLY_cond $X=4.45 $Y=1.35
+ $X2=4.45 $Y2=1.557
r244 14 21 26.9307 $w=1.5e-07 $l=1.06066e-07 $layer=POLY_cond $X=4.45 $Y=1.19
+ $X2=4.525 $Y2=1.115
r245 14 15 82.0426 $w=1.5e-07 $l=1.6e-07 $layer=POLY_cond $X=4.45 $Y=1.19
+ $X2=4.45 $Y2=1.35
r246 11 74 22.8335 $w=1.5e-07 $l=2.08e-07 $layer=POLY_cond $X=3.96 $Y=1.765
+ $X2=3.96 $Y2=1.557
r247 11 13 204.047 $w=1.5e-07 $l=6.35e-07 $layer=POLY_cond $X=3.96 $Y=1.765
+ $X2=3.96 $Y2=2.4
r248 7 73 22.8335 $w=1.5e-07 $l=2.07e-07 $layer=POLY_cond $X=3.94 $Y=1.35
+ $X2=3.94 $Y2=1.557
r249 7 9 312.787 $w=1.5e-07 $l=6.1e-07 $layer=POLY_cond $X=3.94 $Y=1.35 $X2=3.94
+ $Y2=0.74
r250 2 66 600 $w=1.7e-07 $l=2.05061e-07 $layer=licon1_PDIFF $count=1 $X=3.14
+ $Y=1.84 $X2=3.285 $Y2=1.985
r251 1 59 91 $w=1.7e-07 $l=2.05061e-07 $layer=licon1_NDIFF $count=2 $X=3.08
+ $Y=0.37 $X2=3.225 $Y2=0.515
.ends

.subckt PM_SKY130_FD_SC_HS__SDFSTP_4%A_2191_180# 1 2 8 11 12 14 15 19 22 24 25
+ 29 34 36 39 42
c106 34 0 1.11167e-19 $X=12.465 $Y=2.815
c107 29 0 1.71901e-19 $X=11.12 $Y=1.065
c108 24 0 4.1327e-20 $X=12.625 $Y=2.18
r109 37 39 10.4385 $w=1.68e-07 $l=1.6e-07 $layer=LI1_cond $X=12.465 $Y=2.265
+ $X2=12.625 $Y2=2.265
r110 32 34 5.76222 $w=3.28e-07 $l=1.65e-07 $layer=LI1_cond $X=12.3 $Y=2.815
+ $X2=12.465 $Y2=2.815
r111 29 43 40.6903 $w=3.3e-07 $l=1.65e-07 $layer=POLY_cond $X=11.12 $Y=1.065
+ $X2=11.12 $Y2=1.23
r112 29 42 46.2115 $w=3.3e-07 $l=1.65e-07 $layer=POLY_cond $X=11.12 $Y=1.065
+ $X2=11.12 $Y2=0.9
r113 28 29 145.28 $w=1.7e-07 $l=1.7e-07 $layer=licon1_POLY $count=1 $X=11.12
+ $Y=1.065 $X2=11.12 $Y2=1.065
r114 25 28 2.7938 $w=3.28e-07 $l=8e-08 $layer=LI1_cond $X=11.12 $Y=0.985
+ $X2=11.12 $Y2=1.065
r115 24 39 0.716491 $w=1.7e-07 $l=8.5e-08 $layer=LI1_cond $X=12.625 $Y=2.18
+ $X2=12.625 $Y2=2.265
r116 23 36 3.351 $w=2.8e-07 $l=1.46458e-07 $layer=LI1_cond $X=12.625 $Y=1.07
+ $X2=12.515 $Y2=0.985
r117 23 24 72.4171 $w=1.68e-07 $l=1.11e-06 $layer=LI1_cond $X=12.625 $Y=1.07
+ $X2=12.625 $Y2=2.18
r118 22 34 4.62375 $w=1.7e-07 $l=1.65e-07 $layer=LI1_cond $X=12.465 $Y=2.65
+ $X2=12.465 $Y2=2.815
r119 21 37 0.716491 $w=1.7e-07 $l=8.5e-08 $layer=LI1_cond $X=12.465 $Y=2.35
+ $X2=12.465 $Y2=2.265
r120 21 22 19.5722 $w=1.68e-07 $l=3e-07 $layer=LI1_cond $X=12.465 $Y=2.35
+ $X2=12.465 $Y2=2.65
r121 17 36 3.351 $w=2.8e-07 $l=8.5e-08 $layer=LI1_cond $X=12.515 $Y=0.9
+ $X2=12.515 $Y2=0.985
r122 17 19 9.45594 $w=3.88e-07 $l=3.2e-07 $layer=LI1_cond $X=12.515 $Y=0.9
+ $X2=12.515 $Y2=0.58
r123 16 25 4.62375 $w=1.7e-07 $l=1.65e-07 $layer=LI1_cond $X=11.285 $Y=0.985
+ $X2=11.12 $Y2=0.985
r124 15 36 3.18746 $w=1.7e-07 $l=1.95e-07 $layer=LI1_cond $X=12.32 $Y=0.985
+ $X2=12.515 $Y2=0.985
r125 15 16 67.5241 $w=1.68e-07 $l=1.035e-06 $layer=LI1_cond $X=12.32 $Y=0.985
+ $X2=11.285 $Y2=0.985
r126 12 14 91.58 $w=1.5e-07 $l=2.85e-07 $layer=POLY_cond $X=11.065 $Y=2.465
+ $X2=11.065 $Y2=2.75
r127 11 42 102.827 $w=1.5e-07 $l=3.2e-07 $layer=POLY_cond $X=11.06 $Y=0.58
+ $X2=11.06 $Y2=0.9
r128 8 12 36.0588 $w=1.8e-07 $l=9e-08 $layer=POLY_cond $X=11.065 $Y=2.375
+ $X2=11.065 $Y2=2.465