* File: sky130_fd_sc_hs__sedfxbp_2.pex.spice
* Created: Tue Sep  1 20:24:26 2020
* Program "Calibre xRC"
* Version "v2018.4_34.26"
* Nominal Temperature: 27C
* Circuit Temperature: 27C
* 
.subckt PM_SKY130_FD_SC_HS__SEDFXBP_2%D 2 3 5 8 12 13 18 19 21 23
c43 23 0 2.19166e-19 $X=0.54 $Y=1.99
c44 18 0 8.95046e-20 $X=0.54 $Y=1.145
r45 21 23 40.6903 $w=3.3e-07 $l=1.65e-07 $layer=POLY_cond $X=0.54 $Y=1.825
+ $X2=0.54 $Y2=1.99
r46 21 22 96.8533 $w=1.7e-07 $l=2.55e-07 $layer=licon1_POLY $count=1 $X=0.54
+ $Y=1.825 $X2=0.54 $Y2=1.825
r47 18 21 118.906 $w=3.3e-07 $l=6.8e-07 $layer=POLY_cond $X=0.54 $Y=1.145
+ $X2=0.54 $Y2=1.825
r48 18 19 96.8533 $w=1.7e-07 $l=2.55e-07 $layer=licon1_POLY $count=1 $X=0.54
+ $Y=1.145 $X2=0.54 $Y2=1.145
r49 13 22 4.49734 $w=4.08e-07 $l=1.6e-07 $layer=LI1_cond $X=0.63 $Y=1.665
+ $X2=0.63 $Y2=1.825
r50 12 13 10.4001 $w=4.08e-07 $l=3.7e-07 $layer=LI1_cond $X=0.63 $Y=1.295
+ $X2=0.63 $Y2=1.665
r51 12 19 4.21625 $w=4.08e-07 $l=1.5e-07 $layer=LI1_cond $X=0.63 $Y=1.295
+ $X2=0.63 $Y2=1.145
r52 11 18 46.2115 $w=3.3e-07 $l=1.65e-07 $layer=POLY_cond $X=0.54 $Y=0.98
+ $X2=0.54 $Y2=1.145
r53 8 11 205.106 $w=1.5e-07 $l=4e-07 $layer=POLY_cond $X=0.63 $Y=0.58 $X2=0.63
+ $Y2=0.98
r54 3 5 126.927 $w=1.5e-07 $l=3.95e-07 $layer=POLY_cond $X=0.585 $Y=2.245
+ $X2=0.585 $Y2=2.64
r55 2 3 36.0588 $w=1.8e-07 $l=9e-08 $layer=POLY_cond $X=0.585 $Y=2.155 $X2=0.585
+ $Y2=2.245
r56 2 23 64.1371 $w=1.8e-07 $l=1.65e-07 $layer=POLY_cond $X=0.585 $Y=2.155
+ $X2=0.585 $Y2=1.99
.ends

.subckt PM_SKY130_FD_SC_HS__SEDFXBP_2%A_183_290# 1 2 7 9 12 14 18 19 20 21 22 23
+ 26 30 32 36 37 39
c113 23 0 3.35759e-20 $X=1.335 $Y=2.035
c114 21 0 8.95046e-20 $X=1.335 $Y=1.195
r115 37 43 46.2115 $w=3.3e-07 $l=1.65e-07 $layer=POLY_cond $X=2.47 $Y=1.68
+ $X2=2.47 $Y2=1.515
r116 36 37 145.28 $w=1.7e-07 $l=1.7e-07 $layer=licon1_POLY $count=1 $X=2.47
+ $Y=1.68 $X2=2.47 $Y2=1.68
r117 34 36 9.42908 $w=3.28e-07 $l=2.7e-07 $layer=LI1_cond $X=2.47 $Y=1.95
+ $X2=2.47 $Y2=1.68
r118 33 39 5.16603 $w=1.7e-07 $l=8.5e-08 $layer=LI1_cond $X=1.995 $Y=2.035
+ $X2=1.91 $Y2=2.035
r119 32 34 7.76618 $w=1.7e-07 $l=2.03101e-07 $layer=LI1_cond $X=2.305 $Y=2.035
+ $X2=2.47 $Y2=1.95
r120 32 33 20.2246 $w=1.68e-07 $l=3.1e-07 $layer=LI1_cond $X=2.305 $Y=2.035
+ $X2=1.995 $Y2=2.035
r121 28 39 1.34256 $w=1.7e-07 $l=8.5e-08 $layer=LI1_cond $X=1.91 $Y=2.12
+ $X2=1.91 $Y2=2.035
r122 28 30 25.4438 $w=1.68e-07 $l=3.9e-07 $layer=LI1_cond $X=1.91 $Y=2.12
+ $X2=1.91 $Y2=2.51
r123 24 26 11.699 $w=3.28e-07 $l=3.35e-07 $layer=LI1_cond $X=1.845 $Y=1.11
+ $X2=1.845 $Y2=0.775
r124 22 39 5.16603 $w=1.7e-07 $l=8.5e-08 $layer=LI1_cond $X=1.825 $Y=2.035
+ $X2=1.91 $Y2=2.035
r125 22 23 31.9679 $w=1.68e-07 $l=4.9e-07 $layer=LI1_cond $X=1.825 $Y=2.035
+ $X2=1.335 $Y2=2.035
r126 20 24 7.76618 $w=1.7e-07 $l=2.03101e-07 $layer=LI1_cond $X=1.68 $Y=1.195
+ $X2=1.845 $Y2=1.11
r127 20 21 22.508 $w=1.68e-07 $l=3.45e-07 $layer=LI1_cond $X=1.68 $Y=1.195
+ $X2=1.335 $Y2=1.195
r128 18 19 72.64 $w=1.7e-07 $l=3.4e-07 $layer=licon1_POLY $count=2 $X=1.17
+ $Y=1.615 $X2=1.17 $Y2=1.615
r129 16 23 7.76618 $w=1.7e-07 $l=2.03101e-07 $layer=LI1_cond $X=1.17 $Y=1.95
+ $X2=1.335 $Y2=2.035
r130 16 18 11.699 $w=3.28e-07 $l=3.35e-07 $layer=LI1_cond $X=1.17 $Y=1.95
+ $X2=1.17 $Y2=1.615
r131 15 21 7.76618 $w=1.7e-07 $l=2.03101e-07 $layer=LI1_cond $X=1.17 $Y=1.28
+ $X2=1.335 $Y2=1.195
r132 15 18 11.699 $w=3.28e-07 $l=3.35e-07 $layer=LI1_cond $X=1.17 $Y=1.28
+ $X2=1.17 $Y2=1.615
r133 14 19 39.0632 $w=4.2e-07 $l=2.95e-07 $layer=POLY_cond $X=1.125 $Y=1.91
+ $X2=1.125 $Y2=1.615
r134 12 43 379.447 $w=1.5e-07 $l=7.4e-07 $layer=POLY_cond $X=2.56 $Y=0.775
+ $X2=2.56 $Y2=1.515
r135 7 14 48.9303 $w=3.3e-07 $l=3.90416e-07 $layer=POLY_cond $X=1.005 $Y=2.245
+ $X2=1.125 $Y2=1.91
r136 7 9 126.927 $w=1.5e-07 $l=3.95e-07 $layer=POLY_cond $X=1.005 $Y=2.245
+ $X2=1.005 $Y2=2.64
r137 2 30 600 $w=1.7e-07 $l=2.62678e-07 $layer=licon1_PDIFF $count=1 $X=1.765
+ $Y=2.31 $X2=1.91 $Y2=2.51
r138 1 26 182 $w=1.7e-07 $l=2.73038e-07 $layer=licon1_NDIFF $count=1 $X=1.7
+ $Y=0.565 $X2=1.845 $Y2=0.775
.ends

.subckt PM_SKY130_FD_SC_HS__SEDFXBP_2%DE 3 5 6 9 12 13 14 15 17 18 20 21 23 25
+ 26 27 28 31 33
c95 21 0 1.25679e-19 $X=2.74 $Y=2.16
r96 31 34 46.2115 $w=3.3e-07 $l=1.65e-07 $layer=POLY_cond $X=1.74 $Y=1.615
+ $X2=1.74 $Y2=1.78
r97 31 33 46.2115 $w=3.3e-07 $l=1.65e-07 $layer=POLY_cond $X=1.74 $Y=1.615
+ $X2=1.74 $Y2=1.45
r98 28 31 145.28 $w=1.7e-07 $l=1.7e-07 $layer=licon1_POLY $count=1 $X=1.74
+ $Y=1.615 $X2=1.74 $Y2=1.615
r99 23 25 126.927 $w=1.5e-07 $l=3.95e-07 $layer=POLY_cond $X=2.815 $Y=2.235
+ $X2=2.815 $Y2=2.63
r100 22 27 20.4101 $w=1.5e-07 $l=7.5e-08 $layer=POLY_cond $X=2.21 $Y=2.16
+ $X2=2.135 $Y2=2.16
r101 21 23 26.9307 $w=1.5e-07 $l=1.06066e-07 $layer=POLY_cond $X=2.74 $Y=2.16
+ $X2=2.815 $Y2=2.235
r102 21 22 271.766 $w=1.5e-07 $l=5.3e-07 $layer=POLY_cond $X=2.74 $Y=2.16
+ $X2=2.21 $Y2=2.16
r103 18 27 5.30422 $w=1.5e-07 $l=7.5e-08 $layer=POLY_cond $X=2.135 $Y=2.235
+ $X2=2.135 $Y2=2.16
r104 18 20 126.927 $w=1.5e-07 $l=3.95e-07 $layer=POLY_cond $X=2.135 $Y=2.235
+ $X2=2.135 $Y2=2.63
r105 15 17 91.58 $w=1.5e-07 $l=2.85e-07 $layer=POLY_cond $X=2.06 $Y=1.06
+ $X2=2.06 $Y2=0.775
r106 13 27 20.4101 $w=1.5e-07 $l=7.5e-08 $layer=POLY_cond $X=2.06 $Y=2.16
+ $X2=2.135 $Y2=2.16
r107 13 14 79.4787 $w=1.5e-07 $l=1.55e-07 $layer=POLY_cond $X=2.06 $Y=2.16
+ $X2=1.905 $Y2=2.16
r108 12 14 26.9307 $w=1.5e-07 $l=1.06066e-07 $layer=POLY_cond $X=1.83 $Y=2.085
+ $X2=1.905 $Y2=2.16
r109 12 34 156.394 $w=1.5e-07 $l=3.05e-07 $layer=POLY_cond $X=1.83 $Y=2.085
+ $X2=1.83 $Y2=1.78
r110 10 26 20.4101 $w=1.5e-07 $l=7.5e-08 $layer=POLY_cond $X=1.725 $Y=1.135
+ $X2=1.65 $Y2=1.135
r111 9 15 26.9307 $w=1.5e-07 $l=1.06066e-07 $layer=POLY_cond $X=1.985 $Y=1.135
+ $X2=2.06 $Y2=1.06
r112 9 10 133.319 $w=1.5e-07 $l=2.6e-07 $layer=POLY_cond $X=1.985 $Y=1.135
+ $X2=1.725 $Y2=1.135
r113 7 26 5.30422 $w=1.5e-07 $l=7.5e-08 $layer=POLY_cond $X=1.65 $Y=1.21
+ $X2=1.65 $Y2=1.135
r114 7 33 123.064 $w=1.5e-07 $l=2.4e-07 $layer=POLY_cond $X=1.65 $Y=1.21
+ $X2=1.65 $Y2=1.45
r115 5 26 20.4101 $w=1.5e-07 $l=7.5e-08 $layer=POLY_cond $X=1.575 $Y=1.135
+ $X2=1.65 $Y2=1.135
r116 5 6 246.128 $w=1.5e-07 $l=4.8e-07 $layer=POLY_cond $X=1.575 $Y=1.135
+ $X2=1.095 $Y2=1.135
r117 1 6 26.9307 $w=1.5e-07 $l=1.06066e-07 $layer=POLY_cond $X=1.02 $Y=1.06
+ $X2=1.095 $Y2=1.135
r118 1 3 246.128 $w=1.5e-07 $l=4.8e-07 $layer=POLY_cond $X=1.02 $Y=1.06 $X2=1.02
+ $Y2=0.58
.ends

.subckt PM_SKY130_FD_SC_HS__SEDFXBP_2%A_575_87# 1 2 9 12 13 15 16 18 19 20 21 23
+ 25 28 30 32 35 37 39 40 45 47 51 54 55 58 59 63 66 67 73 80 81 87
c290 80 0 1.25679e-19 $X=3.04 $Y=1.68
c291 73 0 1.80649e-19 $X=15.12 $Y=1.665
c292 66 0 8.32079e-20 $X=14.975 $Y=1.665
c293 30 0 1.4807e-19 $X=16.325 $Y=1.765
c294 20 0 4.92549e-20 $X=13.345 $Y=0.94
c295 13 0 1.69943e-19 $X=3.205 $Y=2.235
r296 95 96 3.23498 $w=7.09e-07 $l=1.88e-07 $layer=LI1_cond $X=14.855 $Y=2.217
+ $X2=14.855 $Y2=2.405
r297 94 95 3.9921 $w=7.09e-07 $l=2.32e-07 $layer=LI1_cond $X=14.855 $Y=1.985
+ $X2=14.855 $Y2=2.217
r298 87 88 4.74877 $w=4.06e-07 $l=4e-08 $layer=POLY_cond $X=16.735 $Y=1.532
+ $X2=16.775 $Y2=1.532
r299 84 85 2.37438 $w=4.06e-07 $l=2e-08 $layer=POLY_cond $X=16.305 $Y=1.532
+ $X2=16.325 $Y2=1.532
r300 79 81 28.8521 $w=3.3e-07 $l=1.65e-07 $layer=POLY_cond $X=3.04 $Y=1.68
+ $X2=3.205 $Y2=1.68
r301 79 80 145.28 $w=1.7e-07 $l=1.7e-07 $layer=licon1_POLY $count=1 $X=3.04
+ $Y=1.68 $X2=3.04 $Y2=1.68
r302 76 79 15.7375 $w=3.3e-07 $l=9e-08 $layer=POLY_cond $X=2.95 $Y=1.68 $X2=3.04
+ $Y2=1.68
r303 74 94 5.50635 $w=7.09e-07 $l=3.2e-07 $layer=LI1_cond $X=14.855 $Y=1.665
+ $X2=14.855 $Y2=1.985
r304 73 74 9.3 $w=1.7e-07 $l=1.7e-07 $layer=mcon $count=1 $X=15.12 $Y=1.665
+ $X2=15.12 $Y2=1.665
r305 69 80 9.3 $w=1.7e-07 $l=1.7e-07 $layer=mcon $count=1 $X=3.12 $Y=1.665
+ $X2=3.12 $Y2=1.665
r306 67 69 0.115467 $w=2.3e-07 $l=1.45e-07 $layer=MET1_cond $X=3.265 $Y=1.665
+ $X2=3.12 $Y2=1.665
r307 66 73 0.115467 $w=2.3e-07 $l=1.45e-07 $layer=MET1_cond $X=14.975 $Y=1.665
+ $X2=15.12 $Y2=1.665
r308 66 67 14.4925 $w=1.4e-07 $l=1.171e-05 $layer=MET1_cond $X=14.975 $Y=1.665
+ $X2=3.265 $Y2=1.665
r309 64 87 40.3645 $w=4.06e-07 $l=3.4e-07 $layer=POLY_cond $X=16.395 $Y=1.532
+ $X2=16.735 $Y2=1.532
r310 64 85 8.31034 $w=4.06e-07 $l=7e-08 $layer=POLY_cond $X=16.395 $Y=1.532
+ $X2=16.325 $Y2=1.532
r311 63 64 145.28 $w=1.7e-07 $l=1.7e-07 $layer=licon1_POLY $count=1 $X=16.395
+ $Y=1.465 $X2=16.395 $Y2=1.465
r312 60 63 10.4924 $w=3.33e-07 $l=3.05e-07 $layer=LI1_cond $X=16.09 $Y=1.467
+ $X2=16.395 $Y2=1.467
r313 57 60 4.05585 $w=1.9e-07 $l=1.68e-07 $layer=LI1_cond $X=16.09 $Y=1.635
+ $X2=16.09 $Y2=1.467
r314 57 58 39.9856 $w=1.88e-07 $l=6.85e-07 $layer=LI1_cond $X=16.09 $Y=1.635
+ $X2=16.09 $Y2=2.32
r315 56 96 9.40575 $w=1.7e-07 $l=3.8e-07 $layer=LI1_cond $X=15.235 $Y=2.405
+ $X2=14.855 $Y2=2.405
r316 55 58 6.84389 $w=1.7e-07 $l=1.30767e-07 $layer=LI1_cond $X=15.995 $Y=2.405
+ $X2=16.09 $Y2=2.32
r317 55 56 49.5829 $w=1.68e-07 $l=7.6e-07 $layer=LI1_cond $X=15.995 $Y=2.405
+ $X2=15.235 $Y2=2.405
r318 54 74 10.2197 $w=7.09e-07 $l=1.5906e-07 $layer=LI1_cond $X=14.75 $Y=1.55
+ $X2=14.855 $Y2=1.665
r319 54 59 27.4011 $w=1.68e-07 $l=4.2e-07 $layer=LI1_cond $X=14.75 $Y=1.55
+ $X2=14.75 $Y2=1.13
r320 49 59 8.46218 $w=3.28e-07 $l=1.65e-07 $layer=LI1_cond $X=14.67 $Y=0.965
+ $X2=14.67 $Y2=1.13
r321 49 51 15.7151 $w=3.28e-07 $l=4.5e-07 $layer=LI1_cond $X=14.67 $Y=0.965
+ $X2=14.67 $Y2=0.515
r322 45 96 4.4124 $w=7.09e-07 $l=2.38747e-07 $layer=LI1_cond $X=14.655 $Y=2.49
+ $X2=14.855 $Y2=2.405
r323 45 47 10.404 $w=3.58e-07 $l=3.25e-07 $layer=LI1_cond $X=14.655 $Y=2.49
+ $X2=14.655 $Y2=2.815
r324 42 43 145.28 $w=1.7e-07 $l=1.7e-07 $layer=licon1_POLY $count=1 $X=13.75
+ $Y=2.215 $X2=13.75 $Y2=2.215
r325 40 95 5.32966 $w=3.25e-07 $l=3.8e-07 $layer=LI1_cond $X=14.475 $Y=2.217
+ $X2=14.855 $Y2=2.217
r326 40 42 25.7083 $w=3.23e-07 $l=7.25e-07 $layer=LI1_cond $X=14.475 $Y=2.217
+ $X2=13.75 $Y2=2.217
r327 37 88 26.2263 $w=1.5e-07 $l=2.33e-07 $layer=POLY_cond $X=16.775 $Y=1.765
+ $X2=16.775 $Y2=1.532
r328 37 39 204.047 $w=1.5e-07 $l=6.35e-07 $layer=POLY_cond $X=16.775 $Y=1.765
+ $X2=16.775 $Y2=2.4
r329 33 87 26.2263 $w=1.5e-07 $l=2.32e-07 $layer=POLY_cond $X=16.735 $Y=1.3
+ $X2=16.735 $Y2=1.532
r330 33 35 287.149 $w=1.5e-07 $l=5.6e-07 $layer=POLY_cond $X=16.735 $Y=1.3
+ $X2=16.735 $Y2=0.74
r331 30 85 26.2263 $w=1.5e-07 $l=2.33e-07 $layer=POLY_cond $X=16.325 $Y=1.765
+ $X2=16.325 $Y2=1.532
r332 30 32 204.047 $w=1.5e-07 $l=6.35e-07 $layer=POLY_cond $X=16.325 $Y=1.765
+ $X2=16.325 $Y2=2.4
r333 26 84 26.2263 $w=1.5e-07 $l=2.32e-07 $layer=POLY_cond $X=16.305 $Y=1.3
+ $X2=16.305 $Y2=1.532
r334 26 28 287.149 $w=1.5e-07 $l=5.6e-07 $layer=POLY_cond $X=16.305 $Y=1.3
+ $X2=16.305 $Y2=0.74
r335 25 43 38.5562 $w=2.99e-07 $l=2.05122e-07 $layer=POLY_cond $X=13.84 $Y=2.05
+ $X2=13.75 $Y2=2.215
r336 24 25 530.713 $w=1.5e-07 $l=1.035e-06 $layer=POLY_cond $X=13.84 $Y=1.015
+ $X2=13.84 $Y2=2.05
r337 21 43 52.2586 $w=2.99e-07 $l=2.7157e-07 $layer=POLY_cond $X=13.705 $Y=2.465
+ $X2=13.75 $Y2=2.215
r338 21 23 91.58 $w=1.5e-07 $l=2.85e-07 $layer=POLY_cond $X=13.705 $Y=2.465
+ $X2=13.705 $Y2=2.75
r339 19 24 26.9307 $w=1.5e-07 $l=1.06066e-07 $layer=POLY_cond $X=13.765 $Y=0.94
+ $X2=13.84 $Y2=1.015
r340 19 20 215.362 $w=1.5e-07 $l=4.2e-07 $layer=POLY_cond $X=13.765 $Y=0.94
+ $X2=13.345 $Y2=0.94
r341 16 20 26.9307 $w=1.5e-07 $l=1.06066e-07 $layer=POLY_cond $X=13.27 $Y=0.865
+ $X2=13.345 $Y2=0.94
r342 16 18 91.58 $w=1.5e-07 $l=2.85e-07 $layer=POLY_cond $X=13.27 $Y=0.865
+ $X2=13.27 $Y2=0.58
r343 13 15 126.927 $w=1.5e-07 $l=3.95e-07 $layer=POLY_cond $X=3.205 $Y=2.235
+ $X2=3.205 $Y2=2.63
r344 12 13 36.0588 $w=1.8e-07 $l=9e-08 $layer=POLY_cond $X=3.205 $Y=2.145
+ $X2=3.205 $Y2=2.235
r345 11 81 16.9318 $w=1.8e-07 $l=1.65e-07 $layer=POLY_cond $X=3.205 $Y=1.845
+ $X2=3.205 $Y2=1.68
r346 11 12 116.613 $w=1.8e-07 $l=3e-07 $layer=POLY_cond $X=3.205 $Y=1.845
+ $X2=3.205 $Y2=2.145
r347 7 76 21.2229 $w=1.5e-07 $l=1.65e-07 $layer=POLY_cond $X=2.95 $Y=1.515
+ $X2=2.95 $Y2=1.68
r348 7 9 379.447 $w=1.5e-07 $l=7.4e-07 $layer=POLY_cond $X=2.95 $Y=1.515
+ $X2=2.95 $Y2=0.775
r349 2 94 400 $w=1.7e-07 $l=2.10357e-07 $layer=licon1_PDIFF $count=1 $X=14.49
+ $Y=1.84 $X2=14.64 $Y2=1.985
r350 2 47 400 $w=1.7e-07 $l=1.04732e-06 $layer=licon1_PDIFF $count=1 $X=14.49
+ $Y=1.84 $X2=14.64 $Y2=2.815
r351 1 51 91 $w=1.7e-07 $l=2.03286e-07 $layer=licon1_NDIFF $count=2 $X=14.53
+ $Y=0.37 $X2=14.67 $Y2=0.515
.ends

.subckt PM_SKY130_FD_SC_HS__SEDFXBP_2%A_661_87# 1 2 7 9 10 11 12 14 17 18 19 22
+ 25 28 30 34 35 38 43 46 47
c111 46 0 1.27569e-19 $X=5.97 $Y=1.58
r112 46 49 6.46067 $w=3.28e-07 $l=1.85e-07 $layer=LI1_cond $X=5.97 $Y=1.58
+ $X2=5.97 $Y2=1.765
r113 46 47 72.64 $w=1.7e-07 $l=3.4e-07 $layer=licon1_POLY $count=2 $X=5.97
+ $Y=1.58 $X2=5.97 $Y2=1.58
r114 40 43 5.37015 $w=4.88e-07 $l=2.2e-07 $layer=LI1_cond $X=4.22 $Y=2.49
+ $X2=4.44 $Y2=2.49
r115 37 39 8.79328 $w=2.48e-07 $l=1.65e-07 $layer=LI1_cond $X=4.18 $Y=1.89
+ $X2=4.18 $Y2=2.055
r116 37 38 145.28 $w=1.7e-07 $l=1.7e-07 $layer=licon1_POLY $count=1 $X=4.18
+ $Y=1.89 $X2=4.18 $Y2=1.89
r117 35 37 5.76222 $w=2.48e-07 $l=1.25e-07 $layer=LI1_cond $X=4.18 $Y=1.765
+ $X2=4.18 $Y2=1.89
r118 33 34 72.64 $w=1.7e-07 $l=3.4e-07 $layer=licon1_POLY $count=2 $X=4.18
+ $Y=0.53 $X2=4.18 $Y2=0.53
r119 31 35 2.99516 $w=1.7e-07 $l=1.25e-07 $layer=LI1_cond $X=4.305 $Y=1.765
+ $X2=4.18 $Y2=1.765
r120 30 49 4.62375 $w=1.7e-07 $l=1.65e-07 $layer=LI1_cond $X=5.805 $Y=1.765
+ $X2=5.97 $Y2=1.765
r121 30 31 97.861 $w=1.68e-07 $l=1.5e-06 $layer=LI1_cond $X=5.805 $Y=1.765
+ $X2=4.305 $Y2=1.765
r122 26 33 3.15958 $w=4.05e-07 $l=1.75e-07 $layer=LI1_cond $X=4.305 $Y=0.807
+ $X2=4.18 $Y2=0.687
r123 26 28 9.10572 $w=4.03e-07 $l=3.2e-07 $layer=LI1_cond $X=4.305 $Y=0.807
+ $X2=4.625 $Y2=0.807
r124 25 40 7.03003 $w=1.7e-07 $l=2.45e-07 $layer=LI1_cond $X=4.22 $Y=2.245
+ $X2=4.22 $Y2=2.49
r125 25 39 12.3957 $w=1.68e-07 $l=1.9e-07 $layer=LI1_cond $X=4.22 $Y=2.245
+ $X2=4.22 $Y2=2.055
r126 23 38 118.906 $w=3.3e-07 $l=6.8e-07 $layer=POLY_cond $X=4.18 $Y=1.21
+ $X2=4.18 $Y2=1.89
r127 22 23 72.64 $w=1.7e-07 $l=3.4e-07 $layer=licon1_POLY $count=2 $X=4.18
+ $Y=1.21 $X2=4.18 $Y2=1.21
r128 20 35 3.91831 $w=2.48e-07 $l=8.5e-08 $layer=LI1_cond $X=4.18 $Y=1.68
+ $X2=4.18 $Y2=1.765
r129 20 22 21.6659 $w=2.48e-07 $l=4.7e-07 $layer=LI1_cond $X=4.18 $Y=1.68
+ $X2=4.18 $Y2=1.21
r130 19 33 4.16548 $w=2.5e-07 $l=3.23e-07 $layer=LI1_cond $X=4.18 $Y=1.01
+ $X2=4.18 $Y2=0.687
r131 19 22 9.21954 $w=2.48e-07 $l=2e-07 $layer=LI1_cond $X=4.18 $Y=1.01 $X2=4.18
+ $Y2=1.21
r132 18 47 36.0236 $w=4.4e-07 $l=2.85e-07 $layer=POLY_cond $X=5.915 $Y=1.865
+ $X2=5.915 $Y2=1.58
r133 17 23 10.1687 $w=3.3e-07 $l=7.5e-08 $layer=POLY_cond $X=4.18 $Y=1.135
+ $X2=4.18 $Y2=1.21
r134 15 34 92.6765 $w=3.3e-07 $l=5.3e-07 $layer=POLY_cond $X=4.18 $Y=1.06
+ $X2=4.18 $Y2=0.53
r135 15 17 10.1687 $w=3.3e-07 $l=7.5e-08 $layer=POLY_cond $X=4.18 $Y=1.06
+ $X2=4.18 $Y2=1.135
r136 12 18 44.0028 $w=3.56e-07 $l=3.84545e-07 $layer=POLY_cond $X=5.785 $Y=2.19
+ $X2=5.915 $Y2=1.865
r137 12 14 126.927 $w=1.5e-07 $l=3.95e-07 $layer=POLY_cond $X=5.785 $Y=2.19
+ $X2=5.785 $Y2=2.585
r138 10 17 16.9349 $w=1.5e-07 $l=1.65e-07 $layer=POLY_cond $X=4.015 $Y=1.135
+ $X2=4.18 $Y2=1.135
r139 10 11 287.149 $w=1.5e-07 $l=5.6e-07 $layer=POLY_cond $X=4.015 $Y=1.135
+ $X2=3.455 $Y2=1.135
r140 7 11 26.9307 $w=1.5e-07 $l=1.06066e-07 $layer=POLY_cond $X=3.38 $Y=1.06
+ $X2=3.455 $Y2=1.135
r141 7 9 91.58 $w=1.5e-07 $l=2.85e-07 $layer=POLY_cond $X=3.38 $Y=1.06 $X2=3.38
+ $Y2=0.775
r142 2 43 600 $w=1.7e-07 $l=2.88531e-07 $layer=licon1_PDIFF $count=1 $X=4.295
+ $Y=2.265 $X2=4.44 $Y2=2.49
r143 1 28 182 $w=1.7e-07 $l=2.41868e-07 $layer=licon1_NDIFF $count=1 $X=4.48
+ $Y=0.625 $X2=4.625 $Y2=0.805
.ends

.subckt PM_SKY130_FD_SC_HS__SEDFXBP_2%SCD 2 3 5 8 10 13
r46 13 16 40.6903 $w=3.3e-07 $l=1.65e-07 $layer=POLY_cond $X=5.29 $Y=1.345
+ $X2=5.29 $Y2=1.51
r47 13 15 46.2115 $w=3.3e-07 $l=1.65e-07 $layer=POLY_cond $X=5.29 $Y=1.345
+ $X2=5.29 $Y2=1.18
r48 13 14 145.28 $w=1.7e-07 $l=1.7e-07 $layer=licon1_POLY $count=1 $X=5.29
+ $Y=1.345 $X2=5.29 $Y2=1.345
r49 10 14 8.03218 $w=3.28e-07 $l=2.3e-07 $layer=LI1_cond $X=5.52 $Y=1.345
+ $X2=5.29 $Y2=1.345
r50 8 15 176.904 $w=1.5e-07 $l=3.45e-07 $layer=POLY_cond $X=5.38 $Y=0.835
+ $X2=5.38 $Y2=1.18
r51 3 5 126.927 $w=1.5e-07 $l=3.95e-07 $layer=POLY_cond $X=5.365 $Y=2.19
+ $X2=5.365 $Y2=2.585
r52 2 3 36.0588 $w=1.8e-07 $l=9e-08 $layer=POLY_cond $X=5.365 $Y=2.1 $X2=5.365
+ $Y2=2.19
r53 2 16 229.339 $w=1.8e-07 $l=5.9e-07 $layer=POLY_cond $X=5.365 $Y=2.1
+ $X2=5.365 $Y2=1.51
.ends

.subckt PM_SKY130_FD_SC_HS__SEDFXBP_2%SCE 1 3 4 5 7 8 11 15 16 17 20 22 25 26
c83 20 0 1.27569e-19 $X=5.77 $Y=0.835
c84 1 0 3.24615e-19 $X=3.655 $Y=3.025
r85 25 28 40.6903 $w=3.3e-07 $l=1.65e-07 $layer=POLY_cond $X=4.75 $Y=1.345
+ $X2=4.75 $Y2=1.51
r86 25 27 46.2115 $w=3.3e-07 $l=1.65e-07 $layer=POLY_cond $X=4.75 $Y=1.345
+ $X2=4.75 $Y2=1.18
r87 25 26 145.28 $w=1.7e-07 $l=1.7e-07 $layer=licon1_POLY $count=1 $X=4.75
+ $Y=1.345 $X2=4.75 $Y2=1.345
r88 22 26 6.63528 $w=3.28e-07 $l=1.9e-07 $layer=LI1_cond $X=4.56 $Y=1.345
+ $X2=4.75 $Y2=1.345
r89 18 20 297.404 $w=1.5e-07 $l=5.8e-07 $layer=POLY_cond $X=5.77 $Y=0.255
+ $X2=5.77 $Y2=0.835
r90 16 18 26.9307 $w=1.5e-07 $l=1.06066e-07 $layer=POLY_cond $X=5.695 $Y=0.18
+ $X2=5.77 $Y2=0.255
r91 16 17 399.957 $w=1.5e-07 $l=7.8e-07 $layer=POLY_cond $X=5.695 $Y=0.18
+ $X2=4.915 $Y2=0.18
r92 15 27 176.904 $w=1.5e-07 $l=3.45e-07 $layer=POLY_cond $X=4.84 $Y=0.835
+ $X2=4.84 $Y2=1.18
r93 12 17 26.9307 $w=1.5e-07 $l=1.06066e-07 $layer=POLY_cond $X=4.84 $Y=0.255
+ $X2=4.915 $Y2=0.18
r94 12 15 297.404 $w=1.5e-07 $l=5.8e-07 $layer=POLY_cond $X=4.84 $Y=0.255
+ $X2=4.84 $Y2=0.835
r95 9 11 202.543 $w=1.5e-07 $l=3.95e-07 $layer=POLY_cond $X=4.675 $Y=2.98
+ $X2=4.675 $Y2=2.585
r96 8 11 202.543 $w=1.5e-07 $l=3.95e-07 $layer=POLY_cond $X=4.675 $Y=2.19
+ $X2=4.675 $Y2=2.585
r97 7 8 36.0588 $w=1.8e-07 $l=9e-08 $layer=POLY_cond $X=4.675 $Y=2.1 $X2=4.675
+ $Y2=2.19
r98 7 28 229.339 $w=1.8e-07 $l=5.9e-07 $layer=POLY_cond $X=4.675 $Y=2.1
+ $X2=4.675 $Y2=1.51
r99 4 9 26.9307 $w=1.5e-07 $l=1.58745e-07 $layer=POLY_cond $X=4.585 $Y=3.1
+ $X2=4.675 $Y2=2.98
r100 4 5 438.415 $w=1.5e-07 $l=8.55e-07 $layer=POLY_cond $X=4.585 $Y=3.1
+ $X2=3.73 $Y2=3.1
r101 1 5 26.9307 $w=1.5e-07 $l=1.06066e-07 $layer=POLY_cond $X=3.655 $Y=3.025
+ $X2=3.73 $Y2=3.1
r102 1 3 126.927 $w=1.5e-07 $l=3.95e-07 $layer=POLY_cond $X=3.655 $Y=3.025
+ $X2=3.655 $Y2=2.63
.ends

.subckt PM_SKY130_FD_SC_HS__SEDFXBP_2%CLK 1 3 4 6 7
r36 10 11 145.28 $w=1.7e-07 $l=1.7e-07 $layer=licon1_POLY $count=1 $X=6.87
+ $Y=1.385 $X2=6.87 $Y2=1.385
r37 7 11 3.05058 $w=3.38e-07 $l=9e-08 $layer=LI1_cond $X=6.875 $Y=1.295
+ $X2=6.875 $Y2=1.385
r38 4 10 38.9026 $w=2.7e-07 $l=1.67481e-07 $layer=POLY_cond $X=6.865 $Y=1.22
+ $X2=6.87 $Y2=1.385
r39 4 6 154.24 $w=1.5e-07 $l=4.8e-07 $layer=POLY_cond $X=6.865 $Y=1.22 $X2=6.865
+ $Y2=0.74
r40 1 10 77.2841 $w=2.7e-07 $l=4.15812e-07 $layer=POLY_cond $X=6.795 $Y=1.765
+ $X2=6.87 $Y2=1.385
r41 1 3 204.047 $w=1.5e-07 $l=6.35e-07 $layer=POLY_cond $X=6.795 $Y=1.765
+ $X2=6.795 $Y2=2.4
.ends

.subckt PM_SKY130_FD_SC_HS__SEDFXBP_2%A_1586_74# 1 2 7 9 10 12 15 18 19 21 24 26
+ 27 28 34 37 40 41 43 46 47 48 50 51 52 53 55 58 60 61 64 66 67 70 74 84
c239 84 0 5.95143e-20 $X=12.37 $Y=1.635
c240 70 0 9.34686e-20 $X=13.36 $Y=1.215
c241 64 0 1.97544e-19 $X=8.89 $Y=2.14
c242 60 0 1.82067e-19 $X=8.89 $Y=1.98
c243 37 0 1.94394e-19 $X=9.65 $Y=0.85
c244 19 0 1.60159e-19 $X=13.285 $Y=2.465
c245 18 0 1.09438e-19 $X=13.285 $Y=2.375
r246 74 88 40.6903 $w=3.3e-07 $l=1.65e-07 $layer=POLY_cond $X=13.36 $Y=1.39
+ $X2=13.36 $Y2=1.555
r247 73 74 145.28 $w=1.7e-07 $l=1.7e-07 $layer=licon1_POLY $count=1 $X=13.36
+ $Y=1.39 $X2=13.36 $Y2=1.39
r248 70 73 6.11144 $w=3.28e-07 $l=1.75e-07 $layer=LI1_cond $X=13.36 $Y=1.215
+ $X2=13.36 $Y2=1.39
r249 68 69 15.5982 $w=2.19e-07 $l=2.8e-07 $layer=LI1_cond $X=12.23 $Y=0.935
+ $X2=12.23 $Y2=1.215
r250 64 77 47.886 $w=3.07e-07 $l=3.05e-07 $layer=POLY_cond $X=8.89 $Y=2.22
+ $X2=9.195 $Y2=2.22
r251 63 64 145.28 $w=1.7e-07 $l=1.7e-07 $layer=licon1_POLY $count=1 $X=8.89
+ $Y=2.14 $X2=8.89 $Y2=2.14
r252 60 63 5.5876 $w=3.28e-07 $l=1.6e-07 $layer=LI1_cond $X=8.89 $Y=1.98
+ $X2=8.89 $Y2=2.14
r253 60 61 8.28756 $w=3.28e-07 $l=1.6e-07 $layer=LI1_cond $X=8.89 $Y=1.98
+ $X2=8.89 $Y2=1.82
r254 59 69 2.22295 $w=1.7e-07 $l=1.5e-07 $layer=LI1_cond $X=12.38 $Y=1.215
+ $X2=12.23 $Y2=1.215
r255 58 70 4.62375 $w=1.7e-07 $l=1.65e-07 $layer=LI1_cond $X=13.195 $Y=1.215
+ $X2=13.36 $Y2=1.215
r256 58 59 53.1711 $w=1.68e-07 $l=8.15e-07 $layer=LI1_cond $X=13.195 $Y=1.215
+ $X2=12.38 $Y2=1.215
r257 56 84 19.2347 $w=3.3e-07 $l=1.1e-07 $layer=POLY_cond $X=12.26 $Y=1.635
+ $X2=12.37 $Y2=1.635
r258 55 56 145.28 $w=1.7e-07 $l=1.7e-07 $layer=licon1_POLY $count=1 $X=12.26
+ $Y=1.635 $X2=12.26 $Y2=1.635
r259 53 69 4.36852 $w=3e-07 $l=8.5e-08 $layer=LI1_cond $X=12.23 $Y=1.3 $X2=12.23
+ $Y2=1.215
r260 53 55 12.8689 $w=2.98e-07 $l=3.35e-07 $layer=LI1_cond $X=12.23 $Y=1.3
+ $X2=12.23 $Y2=1.635
r261 51 68 2.22295 $w=1.7e-07 $l=1.5e-07 $layer=LI1_cond $X=12.08 $Y=0.935
+ $X2=12.23 $Y2=0.935
r262 51 52 35.2299 $w=1.68e-07 $l=5.4e-07 $layer=LI1_cond $X=12.08 $Y=0.935
+ $X2=11.54 $Y2=0.935
r263 50 52 6.81649 $w=1.7e-07 $l=1.20208e-07 $layer=LI1_cond $X=11.455 $Y=0.85
+ $X2=11.54 $Y2=0.935
r264 49 50 27.7273 $w=1.68e-07 $l=4.25e-07 $layer=LI1_cond $X=11.455 $Y=0.425
+ $X2=11.455 $Y2=0.85
r265 47 49 6.81649 $w=1.7e-07 $l=1.20208e-07 $layer=LI1_cond $X=11.37 $Y=0.34
+ $X2=11.455 $Y2=0.425
r266 47 48 33.2727 $w=1.68e-07 $l=5.1e-07 $layer=LI1_cond $X=11.37 $Y=0.34
+ $X2=10.86 $Y2=0.34
r267 45 48 6.81649 $w=1.7e-07 $l=1.20208e-07 $layer=LI1_cond $X=10.775 $Y=0.425
+ $X2=10.86 $Y2=0.34
r268 45 46 27.7273 $w=1.68e-07 $l=4.25e-07 $layer=LI1_cond $X=10.775 $Y=0.425
+ $X2=10.775 $Y2=0.85
r269 44 67 2.45049 $w=1.7e-07 $l=1.45e-07 $layer=LI1_cond $X=9.855 $Y=0.935
+ $X2=9.71 $Y2=0.935
r270 43 46 6.81649 $w=1.7e-07 $l=1.20208e-07 $layer=LI1_cond $X=10.69 $Y=0.935
+ $X2=10.775 $Y2=0.85
r271 43 44 54.4759 $w=1.68e-07 $l=8.35e-07 $layer=LI1_cond $X=10.69 $Y=0.935
+ $X2=9.855 $Y2=0.935
r272 41 78 28.8521 $w=3.3e-07 $l=1.65e-07 $layer=POLY_cond $X=9.69 $Y=1.18
+ $X2=9.525 $Y2=1.18
r273 40 41 145.28 $w=1.7e-07 $l=1.7e-07 $layer=licon1_POLY $count=1 $X=9.69
+ $Y=1.18 $X2=9.69 $Y2=1.18
r274 38 67 3.98977 $w=2.3e-07 $l=8.5e-08 $layer=LI1_cond $X=9.71 $Y=1.02
+ $X2=9.71 $Y2=0.935
r275 38 40 6.35831 $w=2.88e-07 $l=1.6e-07 $layer=LI1_cond $X=9.71 $Y=1.02
+ $X2=9.71 $Y2=1.18
r276 37 67 3.98977 $w=2.3e-07 $l=1.11018e-07 $layer=LI1_cond $X=9.65 $Y=0.85
+ $X2=9.71 $Y2=0.935
r277 36 37 27.7273 $w=1.68e-07 $l=4.25e-07 $layer=LI1_cond $X=9.65 $Y=0.425
+ $X2=9.65 $Y2=0.85
r278 35 66 5.16603 $w=1.7e-07 $l=8.5e-08 $layer=LI1_cond $X=9.055 $Y=0.34
+ $X2=8.97 $Y2=0.34
r279 34 36 6.81649 $w=1.7e-07 $l=1.20208e-07 $layer=LI1_cond $X=9.565 $Y=0.34
+ $X2=9.65 $Y2=0.425
r280 34 35 33.2727 $w=1.68e-07 $l=5.1e-07 $layer=LI1_cond $X=9.565 $Y=0.34
+ $X2=9.055 $Y2=0.34
r281 32 66 1.34256 $w=1.7e-07 $l=8.5e-08 $layer=LI1_cond $X=8.97 $Y=0.425
+ $X2=8.97 $Y2=0.34
r282 32 61 91.0107 $w=1.68e-07 $l=1.395e-06 $layer=LI1_cond $X=8.97 $Y=0.425
+ $X2=8.97 $Y2=1.82
r283 28 60 0.903439 $w=3.2e-07 $l=1.65e-07 $layer=LI1_cond $X=8.725 $Y=1.98
+ $X2=8.89 $Y2=1.98
r284 28 30 11.3444 $w=3.18e-07 $l=3.15e-07 $layer=LI1_cond $X=8.725 $Y=1.98
+ $X2=8.41 $Y2=1.98
r285 26 66 5.16603 $w=1.7e-07 $l=8.5e-08 $layer=LI1_cond $X=8.885 $Y=0.34
+ $X2=8.97 $Y2=0.34
r286 26 27 42.4064 $w=1.68e-07 $l=6.5e-07 $layer=LI1_cond $X=8.885 $Y=0.34
+ $X2=8.235 $Y2=0.34
r287 22 27 7.76618 $w=1.7e-07 $l=2.03101e-07 $layer=LI1_cond $X=8.07 $Y=0.425
+ $X2=8.235 $Y2=0.34
r288 22 24 3.14303 $w=3.28e-07 $l=9e-08 $layer=LI1_cond $X=8.07 $Y=0.425
+ $X2=8.07 $Y2=0.515
r289 19 21 91.58 $w=1.5e-07 $l=2.85e-07 $layer=POLY_cond $X=13.285 $Y=2.465
+ $X2=13.285 $Y2=2.75
r290 18 19 36.0588 $w=1.8e-07 $l=9e-08 $layer=POLY_cond $X=13.285 $Y=2.375
+ $X2=13.285 $Y2=2.465
r291 18 88 318.742 $w=1.8e-07 $l=8.2e-07 $layer=POLY_cond $X=13.285 $Y=2.375
+ $X2=13.285 $Y2=1.555
r292 13 84 21.2229 $w=1.5e-07 $l=1.65e-07 $layer=POLY_cond $X=12.37 $Y=1.47
+ $X2=12.37 $Y2=1.635
r293 13 15 399.957 $w=1.5e-07 $l=7.8e-07 $layer=POLY_cond $X=12.37 $Y=1.47
+ $X2=12.37 $Y2=0.69
r294 10 78 21.2229 $w=1.5e-07 $l=1.65e-07 $layer=POLY_cond $X=9.525 $Y=1.015
+ $X2=9.525 $Y2=1.18
r295 10 12 102.827 $w=1.5e-07 $l=3.2e-07 $layer=POLY_cond $X=9.525 $Y=1.015
+ $X2=9.525 $Y2=0.695
r296 7 77 19.5117 $w=1.5e-07 $l=2.45e-07 $layer=POLY_cond $X=9.195 $Y=2.465
+ $X2=9.195 $Y2=2.22
r297 7 9 91.58 $w=1.5e-07 $l=2.85e-07 $layer=POLY_cond $X=9.195 $Y=2.465
+ $X2=9.195 $Y2=2.75
r298 2 30 600 $w=1.7e-07 $l=2.43721e-07 $layer=licon1_PDIFF $count=1 $X=8.26
+ $Y=1.84 $X2=8.41 $Y2=2.02
r299 1 24 91 $w=1.7e-07 $l=2.03286e-07 $layer=licon1_NDIFF $count=2 $X=7.93
+ $Y=0.37 $X2=8.07 $Y2=0.515
.ends

.subckt PM_SKY130_FD_SC_HS__SEDFXBP_2%A_1374_368# 1 2 11 13 15 17 18 22 24 27 28
+ 30 31 33 36 38 39 40 46 49 51 55 56 57 61 67 73
c190 67 0 1.09438e-19 $X=12.82 $Y=1.635
c191 61 0 1.97544e-19 $X=9.69 $Y=2.195
c192 46 0 1.60159e-19 $X=12.55 $Y=2.475
c193 31 0 9.34686e-20 $X=12.75 $Y=1.885
c194 27 0 1.82067e-19 $X=9.6 $Y=2.03
c195 22 0 1.94394e-19 $X=8.845 $Y=0.695
c196 13 0 5.76754e-20 $X=8.095 $Y=1.66
r197 67 68 145.28 $w=1.7e-07 $l=1.7e-07 $layer=licon1_POLY $count=1 $X=12.82
+ $Y=1.635 $X2=12.82 $Y2=1.635
r198 64 67 6.46067 $w=3.28e-07 $l=1.85e-07 $layer=LI1_cond $X=12.635 $Y=1.635
+ $X2=12.82 $Y2=1.635
r199 61 62 145.28 $w=1.7e-07 $l=1.7e-07 $layer=licon1_POLY $count=1 $X=9.69
+ $Y=2.195 $X2=9.69 $Y2=2.195
r200 55 58 9.0362 $w=4.38e-07 $l=3.45e-07 $layer=LI1_cond $X=7.435 $Y=1.635
+ $X2=7.435 $Y2=1.98
r201 55 57 8.83531 $w=4.38e-07 $l=1.65e-07 $layer=LI1_cond $X=7.435 $Y=1.635
+ $X2=7.435 $Y2=1.47
r202 55 56 72.64 $w=1.7e-07 $l=3.4e-07 $layer=licon1_POLY $count=2 $X=7.49
+ $Y=1.635 $X2=7.49 $Y2=1.635
r203 53 57 30.0107 $w=1.68e-07 $l=4.6e-07 $layer=LI1_cond $X=7.3 $Y=1.01 $X2=7.3
+ $Y2=1.47
r204 51 53 17.7356 $w=4.68e-07 $l=4.95e-07 $layer=LI1_cond $X=7.15 $Y=0.515
+ $X2=7.15 $Y2=1.01
r205 48 64 4.62375 $w=1.7e-07 $l=1.65e-07 $layer=LI1_cond $X=12.635 $Y=1.8
+ $X2=12.635 $Y2=1.635
r206 48 49 38.492 $w=1.68e-07 $l=5.9e-07 $layer=LI1_cond $X=12.635 $Y=1.8
+ $X2=12.635 $Y2=2.39
r207 47 61 11.8611 $w=2.88e-07 $l=3.58887e-07 $layer=LI1_cond $X=9.925 $Y=2.475
+ $X2=9.745 $Y2=2.195
r208 46 49 6.81649 $w=1.7e-07 $l=1.20208e-07 $layer=LI1_cond $X=12.55 $Y=2.475
+ $X2=12.635 $Y2=2.39
r209 46 47 171.257 $w=1.68e-07 $l=2.625e-06 $layer=LI1_cond $X=12.55 $Y=2.475
+ $X2=9.925 $Y2=2.475
r210 40 58 2.60351 $w=3.2e-07 $l=2.2e-07 $layer=LI1_cond $X=7.215 $Y=1.98
+ $X2=7.435 $Y2=1.98
r211 40 42 7.0227 $w=3.18e-07 $l=1.95e-07 $layer=LI1_cond $X=7.215 $Y=1.98
+ $X2=7.02 $Y2=1.98
r212 34 68 38.5562 $w=2.99e-07 $l=1.92678e-07 $layer=POLY_cond $X=12.88 $Y=1.47
+ $X2=12.82 $Y2=1.635
r213 34 36 456.362 $w=1.5e-07 $l=8.9e-07 $layer=POLY_cond $X=12.88 $Y=1.47
+ $X2=12.88 $Y2=0.58
r214 31 68 52.2586 $w=2.99e-07 $l=2.82843e-07 $layer=POLY_cond $X=12.75 $Y=1.885
+ $X2=12.82 $Y2=1.635
r215 31 33 184.767 $w=1.5e-07 $l=5.75e-07 $layer=POLY_cond $X=12.75 $Y=1.885
+ $X2=12.75 $Y2=2.46
r216 28 62 55.8646 $w=2.93e-07 $l=2.91633e-07 $layer=POLY_cond $X=9.645 $Y=2.465
+ $X2=9.69 $Y2=2.195
r217 28 30 91.58 $w=1.5e-07 $l=2.85e-07 $layer=POLY_cond $X=9.645 $Y=2.465
+ $X2=9.645 $Y2=2.75
r218 27 62 38.5916 $w=2.93e-07 $l=2.05122e-07 $layer=POLY_cond $X=9.6 $Y=2.03
+ $X2=9.69 $Y2=2.195
r219 26 27 151.266 $w=1.5e-07 $l=2.95e-07 $layer=POLY_cond $X=9.6 $Y=1.735
+ $X2=9.6 $Y2=2.03
r220 25 39 20.4101 $w=1.5e-07 $l=7.5e-08 $layer=POLY_cond $X=8.92 $Y=1.66
+ $X2=8.845 $Y2=1.66
r221 24 26 26.9307 $w=1.5e-07 $l=1.06066e-07 $layer=POLY_cond $X=9.525 $Y=1.66
+ $X2=9.6 $Y2=1.735
r222 24 25 310.223 $w=1.5e-07 $l=6.05e-07 $layer=POLY_cond $X=9.525 $Y=1.66
+ $X2=8.92 $Y2=1.66
r223 20 39 5.30422 $w=1.5e-07 $l=7.5e-08 $layer=POLY_cond $X=8.845 $Y=1.585
+ $X2=8.845 $Y2=1.66
r224 20 22 456.362 $w=1.5e-07 $l=8.9e-07 $layer=POLY_cond $X=8.845 $Y=1.585
+ $X2=8.845 $Y2=0.695
r225 19 38 20.4101 $w=1.5e-07 $l=9.72111e-08 $layer=POLY_cond $X=8.275 $Y=1.66
+ $X2=8.185 $Y2=1.675
r226 18 39 20.4101 $w=1.5e-07 $l=7.5e-08 $layer=POLY_cond $X=8.77 $Y=1.66
+ $X2=8.845 $Y2=1.66
r227 18 19 253.819 $w=1.5e-07 $l=4.95e-07 $layer=POLY_cond $X=8.77 $Y=1.66
+ $X2=8.275 $Y2=1.66
r228 15 38 5.30422 $w=1.5e-07 $l=9e-08 $layer=POLY_cond $X=8.185 $Y=1.765
+ $X2=8.185 $Y2=1.675
r229 15 17 204.047 $w=1.5e-07 $l=6.35e-07 $layer=POLY_cond $X=8.185 $Y=1.765
+ $X2=8.185 $Y2=2.4
r230 13 38 20.4101 $w=1.5e-07 $l=9.72111e-08 $layer=POLY_cond $X=8.095 $Y=1.66
+ $X2=8.185 $Y2=1.675
r231 13 73 84.6064 $w=1.5e-07 $l=1.65e-07 $layer=POLY_cond $X=8.095 $Y=1.66
+ $X2=7.93 $Y2=1.66
r232 9 73 28.1815 $w=2.65e-07 $l=7.5e-08 $layer=POLY_cond $X=7.855 $Y=1.602
+ $X2=7.93 $Y2=1.602
r233 9 56 82.6235 $w=2.65e-07 $l=3.65e-07 $layer=POLY_cond $X=7.855 $Y=1.602
+ $X2=7.49 $Y2=1.602
r234 9 11 374.319 $w=1.5e-07 $l=7.3e-07 $layer=POLY_cond $X=7.855 $Y=1.47
+ $X2=7.855 $Y2=0.74
r235 2 42 600 $w=1.7e-07 $l=2.43721e-07 $layer=licon1_PDIFF $count=1 $X=6.87
+ $Y=1.84 $X2=7.02 $Y2=2.02
r236 1 51 91 $w=1.7e-07 $l=2.03286e-07 $layer=licon1_NDIFF $count=2 $X=6.94
+ $Y=0.37 $X2=7.08 $Y2=0.515
.ends

.subckt PM_SKY130_FD_SC_HS__SEDFXBP_2%A_2013_71# 1 2 9 12 13 15 18 19 20 22 23
+ 25 26 28 34 37 38 40 41 43 47
c114 47 0 2.55325e-20 $X=10.23 $Y=1.355
c115 43 0 1.43495e-19 $X=10.23 $Y=1.275
c116 40 0 5.95143e-20 $X=11.72 $Y=1.355
r117 49 50 9.1748 $w=2.46e-07 $l=1.85e-07 $layer=LI1_cond $X=11.115 $Y=1.355
+ $X2=11.3 $Y2=1.355
r118 47 53 40.6903 $w=3.3e-07 $l=1.65e-07 $layer=POLY_cond $X=10.23 $Y=1.355
+ $X2=10.23 $Y2=1.52
r119 47 52 46.2115 $w=3.3e-07 $l=1.65e-07 $layer=POLY_cond $X=10.23 $Y=1.355
+ $X2=10.23 $Y2=1.19
r120 46 47 145.28 $w=1.7e-07 $l=1.7e-07 $layer=licon1_POLY $count=1 $X=10.23
+ $Y=1.355 $X2=10.23 $Y2=1.355
r121 43 46 2.7938 $w=3.28e-07 $l=8e-08 $layer=LI1_cond $X=10.23 $Y=1.275
+ $X2=10.23 $Y2=1.355
r122 40 41 72.64 $w=1.7e-07 $l=3.4e-07 $layer=licon1_POLY $count=2 $X=11.72
+ $Y=1.355 $X2=11.72 $Y2=1.355