* File: sky130_fd_sc_hs__sedfxbp_1.pex.spice
* Created: Thu Aug 27 21:10:58 2020
* Program "Calibre xRC"
* Version "v2018.4_34.26"
* Nominal Temperature: 27C
* Circuit Temperature: 27C
* 
.subckt PM_SKY130_FD_SC_HS__SEDFXBP_1%D 2 4 5 7 10 12 13 14 18 19
r42 18 20 46.7569 $w=3.7e-07 $l=1.65e-07 $layer=POLY_cond $X=0.6 $Y=1.225
+ $X2=0.6 $Y2=1.06
r43 18 19 72.64 $w=1.7e-07 $l=3.4e-07 $layer=licon1_POLY $count=2 $X=0.62
+ $Y=1.225 $X2=0.62 $Y2=1.225
r44 13 14 11.2212 $w=3.78e-07 $l=3.7e-07 $layer=LI1_cond $X=0.645 $Y=1.295
+ $X2=0.645 $Y2=1.665
r45 13 19 2.12292 $w=3.78e-07 $l=7e-08 $layer=LI1_cond $X=0.645 $Y=1.295
+ $X2=0.645 $Y2=1.225
r46 10 20 205.106 $w=1.5e-07 $l=4e-07 $layer=POLY_cond $X=0.71 $Y=0.66 $X2=0.71
+ $Y2=1.06
r47 5 7 126.927 $w=1.5e-07 $l=3.95e-07 $layer=POLY_cond $X=0.505 $Y=2.245
+ $X2=0.505 $Y2=2.64
r48 4 5 36.0588 $w=1.8e-07 $l=9e-08 $layer=POLY_cond $X=0.505 $Y=2.155 $X2=0.505
+ $Y2=2.245
r49 4 12 165.202 $w=1.8e-07 $l=4.25e-07 $layer=POLY_cond $X=0.505 $Y=2.155
+ $X2=0.505 $Y2=1.73
r50 2 12 44.1029 $w=3.7e-07 $l=1.85e-07 $layer=POLY_cond $X=0.6 $Y=1.545 $X2=0.6
+ $Y2=1.73
r51 1 18 3.11915 $w=3.7e-07 $l=2e-08 $layer=POLY_cond $X=0.6 $Y=1.245 $X2=0.6
+ $Y2=1.225
r52 1 2 46.7872 $w=3.7e-07 $l=3e-07 $layer=POLY_cond $X=0.6 $Y=1.245 $X2=0.6
+ $Y2=1.545
.ends

.subckt PM_SKY130_FD_SC_HS__SEDFXBP_1%A_161_394# 1 2 7 9 12 14 20 21 22 23 24 25
+ 28 32 34 38 39 41
c112 38 0 1.83709e-19 $X=2.5 $Y=1.69
r113 39 45 46.2115 $w=3.3e-07 $l=1.65e-07 $layer=POLY_cond $X=2.5 $Y=1.69
+ $X2=2.5 $Y2=1.525
r114 38 39 145.28 $w=1.7e-07 $l=1.7e-07 $layer=licon1_POLY $count=1 $X=2.5
+ $Y=1.69 $X2=2.5 $Y2=1.69
r115 36 38 9.07985 $w=3.28e-07 $l=2.6e-07 $layer=LI1_cond $X=2.5 $Y=1.95 $X2=2.5
+ $Y2=1.69
r116 35 41 5.16603 $w=1.7e-07 $l=8.5e-08 $layer=LI1_cond $X=1.885 $Y=2.035
+ $X2=1.8 $Y2=2.035
r117 34 36 7.76618 $w=1.7e-07 $l=2.03101e-07 $layer=LI1_cond $X=2.335 $Y=2.035
+ $X2=2.5 $Y2=1.95
r118 34 35 29.3583 $w=1.68e-07 $l=4.5e-07 $layer=LI1_cond $X=2.335 $Y=2.035
+ $X2=1.885 $Y2=2.035
r119 30 41 1.34256 $w=1.7e-07 $l=8.5e-08 $layer=LI1_cond $X=1.8 $Y=2.12 $X2=1.8
+ $Y2=2.035
r120 30 32 25.7701 $w=1.68e-07 $l=3.95e-07 $layer=LI1_cond $X=1.8 $Y=2.12
+ $X2=1.8 $Y2=2.515
r121 26 28 11.699 $w=3.28e-07 $l=3.35e-07 $layer=LI1_cond $X=1.875 $Y=1.11
+ $X2=1.875 $Y2=0.775
r122 24 41 5.16603 $w=1.7e-07 $l=8.5e-08 $layer=LI1_cond $X=1.715 $Y=2.035
+ $X2=1.8 $Y2=2.035
r123 24 25 23.4866 $w=1.68e-07 $l=3.6e-07 $layer=LI1_cond $X=1.715 $Y=2.035
+ $X2=1.355 $Y2=2.035
r124 22 26 7.76618 $w=1.7e-07 $l=2.03101e-07 $layer=LI1_cond $X=1.71 $Y=1.195
+ $X2=1.875 $Y2=1.11
r125 22 23 23.1604 $w=1.68e-07 $l=3.55e-07 $layer=LI1_cond $X=1.71 $Y=1.195
+ $X2=1.355 $Y2=1.195
r126 20 21 72.64 $w=1.7e-07 $l=3.4e-07 $layer=licon1_POLY $count=2 $X=1.19
+ $Y=1.615 $X2=1.19 $Y2=1.615
r127 18 25 7.76618 $w=1.7e-07 $l=2.03101e-07 $layer=LI1_cond $X=1.19 $Y=1.95
+ $X2=1.355 $Y2=2.035
r128 18 20 11.699 $w=3.28e-07 $l=3.35e-07 $layer=LI1_cond $X=1.19 $Y=1.95
+ $X2=1.19 $Y2=1.615
r129 17 23 7.76618 $w=1.7e-07 $l=2.03101e-07 $layer=LI1_cond $X=1.19 $Y=1.28
+ $X2=1.355 $Y2=1.195
r130 17 20 11.699 $w=3.28e-07 $l=3.35e-07 $layer=LI1_cond $X=1.19 $Y=1.28
+ $X2=1.19 $Y2=1.615
r131 16 21 62.0758 $w=3.3e-07 $l=3.55e-07 $layer=POLY_cond $X=1.19 $Y=1.97
+ $X2=1.19 $Y2=1.615
r132 14 16 74.8368 $w=1.9e-07 $l=2.95e-07 $layer=POLY_cond $X=0.895 $Y=2.107
+ $X2=1.19 $Y2=2.107
r133 12 45 384.574 $w=1.5e-07 $l=7.5e-07 $layer=POLY_cond $X=2.59 $Y=0.775
+ $X2=2.59 $Y2=1.525
r134 7 14 8.39207 $w=1.5e-07 $l=1.38e-07 $layer=POLY_cond $X=0.895 $Y=2.245
+ $X2=0.895 $Y2=2.107
r135 7 9 126.927 $w=1.5e-07 $l=3.95e-07 $layer=POLY_cond $X=0.895 $Y=2.245
+ $X2=0.895 $Y2=2.64
r136 2 32 600 $w=1.7e-07 $l=2.57488e-07 $layer=licon1_PDIFF $count=1 $X=1.655
+ $Y=2.32 $X2=1.8 $Y2=2.515
r137 1 28 182 $w=1.7e-07 $l=2.73038e-07 $layer=licon1_NDIFF $count=1 $X=1.73
+ $Y=0.565 $X2=1.875 $Y2=0.775
.ends

.subckt PM_SKY130_FD_SC_HS__SEDFXBP_1%DE 3 5 6 10 11 13 14 16 17 19 21 23 25 26
+ 29 30 31
c86 17 0 1.59932e-19 $X=2.63 $Y=2.17
r87 29 32 46.2115 $w=3.3e-07 $l=1.65e-07 $layer=POLY_cond $X=1.92 $Y=1.615
+ $X2=1.92 $Y2=1.78
r88 29 31 46.2115 $w=3.3e-07 $l=1.65e-07 $layer=POLY_cond $X=1.92 $Y=1.615
+ $X2=1.92 $Y2=1.45
r89 29 30 145.28 $w=1.7e-07 $l=1.7e-07 $layer=licon1_POLY $count=1 $X=1.92
+ $Y=1.615 $X2=1.92 $Y2=1.615
r90 26 30 8.3814 $w=3.28e-07 $l=2.4e-07 $layer=LI1_cond $X=1.68 $Y=1.615
+ $X2=1.92 $Y2=1.615
r91 22 23 133.319 $w=1.5e-07 $l=2.6e-07 $layer=POLY_cond $X=1.83 $Y=1.135
+ $X2=2.09 $Y2=1.135
r92 19 21 126.927 $w=1.5e-07 $l=3.95e-07 $layer=POLY_cond $X=2.705 $Y=2.245
+ $X2=2.705 $Y2=2.64
r93 18 25 5.30422 $w=1.5e-07 $l=8.3e-08 $layer=POLY_cond $X=2.1 $Y=2.17
+ $X2=2.017 $Y2=2.17
r94 17 19 26.9307 $w=1.5e-07 $l=1.06066e-07 $layer=POLY_cond $X=2.63 $Y=2.17
+ $X2=2.705 $Y2=2.245
r95 17 18 271.766 $w=1.5e-07 $l=5.3e-07 $layer=POLY_cond $X=2.63 $Y=2.17 $X2=2.1
+ $Y2=2.17
r96 14 23 2.83073 $w=1.5e-07 $l=7.5e-08 $layer=POLY_cond $X=2.09 $Y=1.06
+ $X2=2.09 $Y2=1.135
r97 14 16 91.58 $w=1.5e-07 $l=2.85e-07 $layer=POLY_cond $X=2.09 $Y=1.06 $X2=2.09
+ $Y2=0.775
r98 11 25 20.4101 $w=1.5e-07 $l=7.88987e-08 $layer=POLY_cond $X=2.025 $Y=2.245
+ $X2=2.017 $Y2=2.17
r99 11 13 126.927 $w=1.5e-07 $l=3.95e-07 $layer=POLY_cond $X=2.025 $Y=2.245
+ $X2=2.025 $Y2=2.64
r100 10 25 20.4101 $w=1.5e-07 $l=7.84219e-08 $layer=POLY_cond $X=2.01 $Y=2.095
+ $X2=2.017 $Y2=2.17
r101 10 32 161.521 $w=1.5e-07 $l=3.15e-07 $layer=POLY_cond $X=2.01 $Y=2.095
+ $X2=2.01 $Y2=1.78
r102 7 22 2.83073 $w=1.5e-07 $l=7.5e-08 $layer=POLY_cond $X=1.83 $Y=1.21
+ $X2=1.83 $Y2=1.135
r103 7 31 123.064 $w=1.5e-07 $l=2.4e-07 $layer=POLY_cond $X=1.83 $Y=1.21
+ $X2=1.83 $Y2=1.45
r104 5 22 38.4574 $w=1.5e-07 $l=7.5e-08 $layer=POLY_cond $X=1.755 $Y=1.135
+ $X2=1.83 $Y2=1.135
r105 5 6 297.404 $w=1.5e-07 $l=5.8e-07 $layer=POLY_cond $X=1.755 $Y=1.135
+ $X2=1.175 $Y2=1.135
r106 1 6 26.9307 $w=1.5e-07 $l=1.06066e-07 $layer=POLY_cond $X=1.1 $Y=1.06
+ $X2=1.175 $Y2=1.135
r107 1 3 205.106 $w=1.5e-07 $l=4e-07 $layer=POLY_cond $X=1.1 $Y=1.06 $X2=1.1
+ $Y2=0.66
.ends

.subckt PM_SKY130_FD_SC_HS__SEDFXBP_1%A_575_305# 1 2 9 12 13 15 16 18 19 20 21
+ 23 25 26 28 31 41 43 46 48 49 51 52 54 57 58 59 65 69 70 80 82
c259 65 0 8.67988e-20 $X=14.16 $Y=2.035
c260 59 0 3.4364e-19 $X=3.265 $Y=2.035
c261 43 0 1.74002e-19 $X=14.515 $Y=1.92
c262 26 0 1.36772e-20 $X=15.8 $Y=1.765
c263 13 0 1.60054e-19 $X=3.125 $Y=2.245
r264 69 72 40.7132 $w=3.4e-07 $l=1.65e-07 $layer=POLY_cond $X=3.045 $Y=1.69
+ $X2=3.045 $Y2=1.855
r265 69 71 46.3065 $w=3.4e-07 $l=1.65e-07 $layer=POLY_cond $X=3.045 $Y=1.69
+ $X2=3.045 $Y2=1.525
r266 69 70 145.28 $w=1.7e-07 $l=1.7e-07 $layer=licon1_POLY $count=1 $X=3.04
+ $Y=1.69 $X2=3.04 $Y2=1.69
r267 66 82 9.23061 $w=4.58e-07 $l=3.55e-07 $layer=LI1_cond $X=14.16 $Y=2.15
+ $X2=14.515 $Y2=2.15
r268 66 80 4.03585 $w=4.58e-07 $l=1.15e-07 $layer=LI1_cond $X=14.16 $Y=2.15
+ $X2=14.045 $Y2=2.15
r269 65 66 9.3 $w=1.7e-07 $l=1.7e-07 $layer=mcon $count=1 $X=14.16 $Y=2.035
+ $X2=14.16 $Y2=2.035
r270 62 70 12.0483 $w=3.28e-07 $l=3.45e-07 $layer=LI1_cond $X=3.04 $Y=2.035
+ $X2=3.04 $Y2=1.69
r271 61 62 9.3 $w=1.7e-07 $l=1.7e-07 $layer=mcon $count=1 $X=3.12 $Y=2.035
+ $X2=3.12 $Y2=2.035
r272 59 61 0.115467 $w=2.3e-07 $l=1.45e-07 $layer=MET1_cond $X=3.265 $Y=2.035
+ $X2=3.12 $Y2=2.035
r273 58 65 0.115467 $w=2.3e-07 $l=1.45e-07 $layer=MET1_cond $X=14.015 $Y=2.035
+ $X2=14.16 $Y2=2.035
r274 58 59 13.3044 $w=1.4e-07 $l=1.075e-05 $layer=MET1_cond $X=14.015 $Y=2.035
+ $X2=3.265 $Y2=2.035
r275 54 55 145.28 $w=1.7e-07 $l=1.7e-07 $layer=licon1_POLY $count=1 $X=15.765
+ $Y=1.485 $X2=15.765 $Y2=1.485
r276 52 54 14.3182 $w=3.28e-07 $l=4.1e-07 $layer=LI1_cond $X=15.355 $Y=1.485
+ $X2=15.765 $Y2=1.485
r277 51 52 7.76618 $w=3.3e-07 $l=2.03101e-07 $layer=LI1_cond $X=15.27 $Y=1.32
+ $X2=15.355 $Y2=1.485
r278 50 51 58.3904 $w=1.68e-07 $l=8.95e-07 $layer=LI1_cond $X=15.27 $Y=0.425
+ $X2=15.27 $Y2=1.32
r279 48 50 6.81649 $w=1.7e-07 $l=1.20208e-07 $layer=LI1_cond $X=15.185 $Y=0.34
+ $X2=15.27 $Y2=0.425
r280 48 49 38.1658 $w=1.68e-07 $l=5.85e-07 $layer=LI1_cond $X=15.185 $Y=0.34
+ $X2=14.6 $Y2=0.34
r281 44 82 6.6364 $w=1.7e-07 $l=2.3e-07 $layer=LI1_cond $X=14.515 $Y=2.38
+ $X2=14.515 $Y2=2.15
r282 44 46 5.21925 $w=1.68e-07 $l=8e-08 $layer=LI1_cond $X=14.515 $Y=2.38
+ $X2=14.515 $Y2=2.46
r283 43 82 6.6364 $w=1.7e-07 $l=2.3e-07 $layer=LI1_cond $X=14.515 $Y=1.92
+ $X2=14.515 $Y2=2.15
r284 43 57 58.0642 $w=1.68e-07 $l=8.9e-07 $layer=LI1_cond $X=14.515 $Y=1.92
+ $X2=14.515 $Y2=1.03
r285 39 57 9.56083 $w=3.93e-07 $l=1.97e-07 $layer=LI1_cond $X=14.402 $Y=0.833
+ $X2=14.402 $Y2=1.03
r286 39 41 9.2779 $w=3.93e-07 $l=3.18e-07 $layer=LI1_cond $X=14.402 $Y=0.833
+ $X2=14.402 $Y2=0.515
r287 38 49 8.32734 $w=1.7e-07 $l=2.36715e-07 $layer=LI1_cond $X=14.402 $Y=0.425
+ $X2=14.6 $Y2=0.34
r288 38 41 2.62582 $w=3.93e-07 $l=9e-08 $layer=LI1_cond $X=14.402 $Y=0.425
+ $X2=14.402 $Y2=0.515
r289 35 80 14.8931 $w=3.23e-07 $l=4.2e-07 $layer=LI1_cond $X=13.625 $Y=2.217
+ $X2=14.045 $Y2=2.217
r290 35 36 145.28 $w=1.7e-07 $l=1.7e-07 $layer=licon1_POLY $count=1 $X=13.625
+ $Y=2.215 $X2=13.625 $Y2=2.215
r291 29 55 38.6072 $w=2.91e-07 $l=1.92678e-07 $layer=POLY_cond $X=15.825 $Y=1.32
+ $X2=15.765 $Y2=1.485
r292 29 31 287.149 $w=1.5e-07 $l=5.6e-07 $layer=POLY_cond $X=15.825 $Y=1.32
+ $X2=15.825 $Y2=0.76
r293 26 55 57.6553 $w=2.91e-07 $l=2.96985e-07 $layer=POLY_cond $X=15.8 $Y=1.765
+ $X2=15.765 $Y2=1.485
r294 26 28 204.047 $w=1.5e-07 $l=6.35e-07 $layer=POLY_cond $X=15.8 $Y=1.765
+ $X2=15.8 $Y2=2.4
r295 25 36 38.5562 $w=2.99e-07 $l=1.90526e-07 $layer=POLY_cond $X=13.68 $Y=2.05
+ $X2=13.625 $Y2=2.215
r296 24 25 530.713 $w=1.5e-07 $l=1.035e-06 $layer=POLY_cond $X=13.68 $Y=1.015
+ $X2=13.68 $Y2=2.05
r297 21 36 52.2586 $w=2.99e-07 $l=2.7157e-07 $layer=POLY_cond $X=13.58 $Y=2.465
+ $X2=13.625 $Y2=2.215
r298 21 23 91.58 $w=1.5e-07 $l=2.85e-07 $layer=POLY_cond $X=13.58 $Y=2.465
+ $X2=13.58 $Y2=2.75
r299 19 24 26.9307 $w=1.5e-07 $l=1.06066e-07 $layer=POLY_cond $X=13.605 $Y=0.94
+ $X2=13.68 $Y2=1.015
r300 19 20 199.979 $w=1.5e-07 $l=3.9e-07 $layer=POLY_cond $X=13.605 $Y=0.94
+ $X2=13.215 $Y2=0.94
r301 16 20 26.9307 $w=1.5e-07 $l=1.06066e-07 $layer=POLY_cond $X=13.14 $Y=0.865
+ $X2=13.215 $Y2=0.94
r302 16 18 91.58 $w=1.5e-07 $l=2.85e-07 $layer=POLY_cond $X=13.14 $Y=0.865
+ $X2=13.14 $Y2=0.58
r303 13 15 126.927 $w=1.5e-07 $l=3.95e-07 $layer=POLY_cond $X=3.125 $Y=2.245
+ $X2=3.125 $Y2=2.64
r304 12 13 36.0588 $w=1.8e-07 $l=9e-08 $layer=POLY_cond $X=3.125 $Y=2.155
+ $X2=3.125 $Y2=2.245
r305 12 72 116.613 $w=1.8e-07 $l=3e-07 $layer=POLY_cond $X=3.125 $Y=2.155
+ $X2=3.125 $Y2=1.855
r306 9 71 384.574 $w=1.5e-07 $l=7.5e-07 $layer=POLY_cond $X=2.98 $Y=0.775
+ $X2=2.98 $Y2=1.525
r307 2 82 600 $w=1.7e-07 $l=2.10357e-07 $layer=licon1_PDIFF $count=1 $X=14.365
+ $Y=1.96 $X2=14.515 $Y2=2.105
r308 2 46 300 $w=1.7e-07 $l=5.70088e-07 $layer=licon1_PDIFF $count=2 $X=14.365
+ $Y=1.96 $X2=14.515 $Y2=2.46
r309 1 41 91 $w=1.7e-07 $l=2.03286e-07 $layer=licon1_NDIFF $count=2 $X=14.23
+ $Y=0.37 $X2=14.37 $Y2=0.515
.ends

.subckt PM_SKY130_FD_SC_HS__SEDFXBP_1%A_667_87# 1 2 7 9 10 11 12 14 17 21 22 27
+ 28 32 35 38 42 45
r91 45 46 145.28 $w=1.7e-07 $l=1.7e-07 $layer=licon1_POLY $count=1 $X=5.73
+ $Y=1.955 $X2=5.73 $Y2=1.955
r92 35 37 9.07533 $w=5.31e-07 $l=3.95e-07 $layer=LI1_cond $X=4.18 $Y=0.737
+ $X2=4.575 $Y2=0.737
r93 32 34 59.4528 $w=3.3e-07 $l=3.4e-07 $layer=POLY_cond $X=4.155 $Y=0.575
+ $X2=4.155 $Y2=0.915
r94 31 35 0.574388 $w=5.31e-07 $l=2.5e-08 $layer=LI1_cond $X=4.155 $Y=0.737
+ $X2=4.18 $Y2=0.737
r95 31 34 145.28 $w=1.7e-07 $l=1.7e-07 $layer=licon1_POLY $count=1 $X=4.155
+ $Y=0.915 $X2=4.155 $Y2=0.915
r96 31 32 145.28 $w=1.7e-07 $l=1.7e-07 $layer=licon1_POLY $count=1 $X=4.155
+ $Y=0.575 $X2=4.155 $Y2=0.575
r97 29 38 2.11342 $w=1.7e-07 $l=1.25e-07 $layer=LI1_cond $X=4.305 $Y=2.035
+ $X2=4.18 $Y2=2.035
r98 28 45 3.0228 $w=3.03e-07 $l=8e-08 $layer=LI1_cond $X=5.717 $Y=2.035
+ $X2=5.717 $Y2=1.955
r99 28 29 82.2032 $w=1.68e-07 $l=1.26e-06 $layer=LI1_cond $X=5.565 $Y=2.035
+ $X2=4.305 $Y2=2.035
r100 27 42 3.62566 $w=4.43e-07 $l=1.4e-07 $layer=LI1_cond $X=4.22 $Y=2.512
+ $X2=4.36 $Y2=2.512
r101 26 38 4.3182 $w=2.1e-07 $l=1.03078e-07 $layer=LI1_cond $X=4.22 $Y=2.12
+ $X2=4.18 $Y2=2.035
r102 26 27 11.0909 $w=1.68e-07 $l=1.7e-07 $layer=LI1_cond $X=4.22 $Y=2.12
+ $X2=4.22 $Y2=2.29
r103 24 25 96.8533 $w=1.7e-07 $l=2.55e-07 $layer=licon1_POLY $count=1 $X=4.155
+ $Y=1.935 $X2=4.155 $Y2=1.935
r104 22 25 118.906 $w=3.3e-07 $l=6.8e-07 $layer=POLY_cond $X=4.155 $Y=1.255
+ $X2=4.155 $Y2=1.935
r105 21 24 31.3464 $w=2.48e-07 $l=6.8e-07 $layer=LI1_cond $X=4.18 $Y=1.255
+ $X2=4.18 $Y2=1.935
r106 21 22 96.8533 $w=1.7e-07 $l=2.55e-07 $layer=licon1_POLY $count=1 $X=4.155
+ $Y=1.255 $X2=4.155 $Y2=1.255
r107 19 38 4.3182 $w=2.1e-07 $l=8.5e-08 $layer=LI1_cond $X=4.18 $Y=1.95 $X2=4.18
+ $Y2=2.035
r108 19 24 0.691466 $w=2.48e-07 $l=1.5e-08 $layer=LI1_cond $X=4.18 $Y=1.95
+ $X2=4.18 $Y2=1.935
r109 18 35 5.16051 $w=2.5e-07 $l=3.28e-07 $layer=LI1_cond $X=4.18 $Y=1.065
+ $X2=4.18 $Y2=0.737
r110 18 21 8.75857 $w=2.48e-07 $l=1.9e-07 $layer=LI1_cond $X=4.18 $Y=1.065
+ $X2=4.18 $Y2=1.255
r111 16 22 7.86876 $w=3.3e-07 $l=4.5e-08 $layer=POLY_cond $X=4.155 $Y=1.21
+ $X2=4.155 $Y2=1.255
r112 16 17 10.1687 $w=3.3e-07 $l=7.5e-08 $layer=POLY_cond $X=4.155 $Y=1.21
+ $X2=4.155 $Y2=1.135
r113 15 34 25.3549 $w=3.3e-07 $l=1.45e-07 $layer=POLY_cond $X=4.155 $Y=1.06
+ $X2=4.155 $Y2=0.915
r114 15 17 10.1687 $w=3.3e-07 $l=7.5e-08 $layer=POLY_cond $X=4.155 $Y=1.06
+ $X2=4.155 $Y2=1.135
r115 12 46 57.6553 $w=2.91e-07 $l=3.15278e-07 $layer=POLY_cond $X=5.655 $Y=2.235
+ $X2=5.73 $Y2=1.955
r116 12 14 126.927 $w=1.5e-07 $l=3.95e-07 $layer=POLY_cond $X=5.655 $Y=2.235
+ $X2=5.655 $Y2=2.63
r117 10 17 16.9349 $w=1.5e-07 $l=1.65e-07 $layer=POLY_cond $X=3.99 $Y=1.135
+ $X2=4.155 $Y2=1.135
r118 10 11 258.947 $w=1.5e-07 $l=5.05e-07 $layer=POLY_cond $X=3.99 $Y=1.135
+ $X2=3.485 $Y2=1.135
r119 7 11 26.9307 $w=1.5e-07 $l=1.06066e-07 $layer=POLY_cond $X=3.41 $Y=1.06
+ $X2=3.485 $Y2=1.135
r120 7 9 91.58 $w=1.5e-07 $l=2.85e-07 $layer=POLY_cond $X=3.41 $Y=1.06 $X2=3.41
+ $Y2=0.775
r121 2 42 600 $w=1.7e-07 $l=2.62678e-07 $layer=licon1_PDIFF $count=1 $X=4.215
+ $Y=2.31 $X2=4.36 $Y2=2.51
r122 1 37 182 $w=1.7e-07 $l=2.73038e-07 $layer=licon1_NDIFF $count=1 $X=4.43
+ $Y=0.625 $X2=4.575 $Y2=0.835
.ends

.subckt PM_SKY130_FD_SC_HS__SEDFXBP_1%SCD 2 3 5 8 10 13
c45 13 0 7.32197e-20 $X=5.24 $Y=1.345
c46 10 0 7.28902e-20 $X=5.52 $Y=1.295
c47 3 0 9.14724e-20 $X=5.265 $Y=2.235
r48 13 16 40.6903 $w=3.3e-07 $l=1.65e-07 $layer=POLY_cond $X=5.24 $Y=1.345
+ $X2=5.24 $Y2=1.51
r49 13 15 46.2115 $w=3.3e-07 $l=1.65e-07 $layer=POLY_cond $X=5.24 $Y=1.345
+ $X2=5.24 $Y2=1.18
r50 13 14 145.28 $w=1.7e-07 $l=1.7e-07 $layer=licon1_POLY $count=1 $X=5.24
+ $Y=1.345 $X2=5.24 $Y2=1.345
r51 10 14 9.7783 $w=3.28e-07 $l=2.8e-07 $layer=LI1_cond $X=5.52 $Y=1.345
+ $X2=5.24 $Y2=1.345
r52 8 15 176.904 $w=1.5e-07 $l=3.45e-07 $layer=POLY_cond $X=5.3 $Y=0.835 $X2=5.3
+ $Y2=1.18
r53 3 5 126.927 $w=1.5e-07 $l=3.95e-07 $layer=POLY_cond $X=5.265 $Y=2.235
+ $X2=5.265 $Y2=2.63
r54 2 3 36.0588 $w=1.8e-07 $l=9e-08 $layer=POLY_cond $X=5.265 $Y=2.145 $X2=5.265
+ $Y2=2.235
r55 2 16 246.831 $w=1.8e-07 $l=6.35e-07 $layer=POLY_cond $X=5.265 $Y=2.145
+ $X2=5.265 $Y2=1.51
.ends

.subckt PM_SKY130_FD_SC_HS__SEDFXBP_1%SCE 1 3 4 5 7 8 11 15 16 17 20 22 25 26
c80 26 0 7.32197e-20 $X=4.7 $Y=1.615
c81 25 0 7.28902e-20 $X=4.7 $Y=1.615
c82 11 0 9.88305e-20 $X=4.65 $Y=2.63
r83 25 28 40.6903 $w=3.3e-07 $l=1.65e-07 $layer=POLY_cond $X=4.7 $Y=1.615
+ $X2=4.7 $Y2=1.78
r84 25 27 46.2115 $w=3.3e-07 $l=1.65e-07 $layer=POLY_cond $X=4.7 $Y=1.615
+ $X2=4.7 $Y2=1.45
r85 25 26 145.28 $w=1.7e-07 $l=1.7e-07 $layer=licon1_POLY $count=1 $X=4.7
+ $Y=1.615 $X2=4.7 $Y2=1.615
r86 22 26 4.88915 $w=3.28e-07 $l=1.4e-07 $layer=LI1_cond $X=4.56 $Y=1.615
+ $X2=4.7 $Y2=1.615
r87 18 20 297.404 $w=1.5e-07 $l=5.8e-07 $layer=POLY_cond $X=5.69 $Y=0.255
+ $X2=5.69 $Y2=0.835
r88 16 18 26.9307 $w=1.5e-07 $l=1.06066e-07 $layer=POLY_cond $X=5.615 $Y=0.18
+ $X2=5.69 $Y2=0.255
r89 16 17 384.574 $w=1.5e-07 $l=7.5e-07 $layer=POLY_cond $X=5.615 $Y=0.18
+ $X2=4.865 $Y2=0.18
r90 15 27 315.351 $w=1.5e-07 $l=6.15e-07 $layer=POLY_cond $X=4.79 $Y=0.835
+ $X2=4.79 $Y2=1.45
r91 12 17 26.9307 $w=1.5e-07 $l=1.06066e-07 $layer=POLY_cond $X=4.79 $Y=0.255
+ $X2=4.865 $Y2=0.18
r92 12 15 297.404 $w=1.5e-07 $l=5.8e-07 $layer=POLY_cond $X=4.79 $Y=0.255
+ $X2=4.79 $Y2=0.835
r93 9 11 202.543 $w=1.5e-07 $l=3.95e-07 $layer=POLY_cond $X=4.65 $Y=3.025
+ $X2=4.65 $Y2=2.63
r94 8 11 202.543 $w=1.5e-07 $l=3.95e-07 $layer=POLY_cond $X=4.65 $Y=2.235
+ $X2=4.65 $Y2=2.63
r95 7 8 36.0588 $w=1.8e-07 $l=9e-08 $layer=POLY_cond $X=4.65 $Y=2.145 $X2=4.65
+ $Y2=2.235
r96 7 28 141.879 $w=1.8e-07 $l=3.65e-07 $layer=POLY_cond $X=4.65 $Y=2.145
+ $X2=4.65 $Y2=1.78
r97 4 9 26.9307 $w=1.5e-07 $l=1.25499e-07 $layer=POLY_cond $X=4.56 $Y=3.11
+ $X2=4.65 $Y2=3.025
r98 4 5 466.617 $w=1.5e-07 $l=9.1e-07 $layer=POLY_cond $X=4.56 $Y=3.11 $X2=3.65
+ $Y2=3.11
r99 1 5 26.9307 $w=1.5e-07 $l=1.06066e-07 $layer=POLY_cond $X=3.575 $Y=3.035
+ $X2=3.65 $Y2=3.11
r100 1 3 126.927 $w=1.5e-07 $l=3.95e-07 $layer=POLY_cond $X=3.575 $Y=3.035
+ $X2=3.575 $Y2=2.64
.ends

.subckt PM_SKY130_FD_SC_HS__SEDFXBP_1%CLK 1 3 4 6 7
r35 10 11 145.28 $w=1.7e-07 $l=1.7e-07 $layer=licon1_POLY $count=1 $X=6.74
+ $Y=1.385 $X2=6.74 $Y2=1.385
r36 7 11 6.85236 $w=3.68e-07 $l=2.2e-07 $layer=LI1_cond $X=6.96 $Y=1.365
+ $X2=6.74 $Y2=1.365
r37 4 10 38.9026 $w=2.7e-07 $l=1.92678e-07 $layer=POLY_cond $X=6.68 $Y=1.22
+ $X2=6.74 $Y2=1.385
r38 4 6 154.24 $w=1.5e-07 $l=4.8e-07 $layer=POLY_cond $X=6.68 $Y=1.22 $X2=6.68
+ $Y2=0.74
r39 1 10 77.2841 $w=2.7e-07 $l=4.15812e-07 $layer=POLY_cond $X=6.665 $Y=1.765
+ $X2=6.74 $Y2=1.385
r40 1 3 204.047 $w=1.5e-07 $l=6.35e-07 $layer=POLY_cond $X=6.665 $Y=1.765
+ $X2=6.665 $Y2=2.4
.ends

.subckt PM_SKY130_FD_SC_HS__SEDFXBP_1%A_1549_74# 1 2 7 9 12 15 17 18 19 21 24 27
+ 29 30 31 37 40 41 44 45 46 48 49 50 51 53 56 59 62 64 65 68 71 75 80 84
c231 84 0 1.73561e-19 $X=12.24 $Y=1.635
c232 75 0 1.02428e-19 $X=13.23 $Y=1.39
c233 71 0 9.34686e-20 $X=13.23 $Y=1.215
c234 65 0 1.64433e-19 $X=9.535 $Y=0.935
c235 62 0 2.0055e-20 $X=8.75 $Y=2.215
c236 31 0 1.93879e-19 $X=8.585 $Y=1.98
c237 19 0 1.59461e-19 $X=13.16 $Y=2.465
r238 75 88 46.2115 $w=3.3e-07 $l=1.65e-07 $layer=POLY_cond $X=13.23 $Y=1.39
+ $X2=13.23 $Y2=1.555
r239 74 75 145.28 $w=1.7e-07 $l=1.7e-07 $layer=licon1_POLY $count=1 $X=13.23
+ $Y=1.39 $X2=13.23 $Y2=1.39
r240 71 74 6.11144 $w=3.28e-07 $l=1.75e-07 $layer=LI1_cond $X=13.23 $Y=1.215
+ $X2=13.23 $Y2=1.39
r241 69 70 15.457 $w=2.21e-07 $l=2.8e-07 $layer=LI1_cond $X=12.102 $Y=0.935
+ $X2=12.102 $Y2=1.215
r242 68 80 46.2115 $w=3.3e-07 $l=1.65e-07 $layer=POLY_cond $X=9.485 $Y=1.285
+ $X2=9.485 $Y2=1.12
r243 67 68 145.28 $w=1.7e-07 $l=1.7e-07 $layer=licon1_POLY $count=1 $X=9.485
+ $Y=1.285 $X2=9.485 $Y2=1.285
r244 65 67 16.4231 $w=2.6e-07 $l=3.5e-07 $layer=LI1_cond $X=9.535 $Y=0.935
+ $X2=9.535 $Y2=1.285
r245 62 78 57.4224 $w=2.77e-07 $l=3.3e-07 $layer=POLY_cond $X=8.75 $Y=2.257
+ $X2=9.08 $Y2=2.257
r246 61 62 145.28 $w=1.7e-07 $l=1.7e-07 $layer=licon1_POLY $count=1 $X=8.75
+ $Y=2.215 $X2=8.75 $Y2=2.215
r247 57 70 2.27611 $w=1.7e-07 $l=1.53e-07 $layer=LI1_cond $X=12.255 $Y=1.215
+ $X2=12.102 $Y2=1.215
r248 56 71 4.62375 $w=1.7e-07 $l=1.65e-07 $layer=LI1_cond $X=13.065 $Y=1.215
+ $X2=13.23 $Y2=1.215
r249 56 57 52.8449 $w=1.68e-07 $l=8.1e-07 $layer=LI1_cond $X=13.065 $Y=1.215
+ $X2=12.255 $Y2=1.215
r250 54 84 21.8577 $w=3.3e-07 $l=1.25e-07 $layer=POLY_cond $X=12.115 $Y=1.635
+ $X2=12.24 $Y2=1.635
r251 53 54 145.28 $w=1.7e-07 $l=1.7e-07 $layer=licon1_POLY $count=1 $X=12.115
+ $Y=1.635 $X2=12.115 $Y2=1.635
r252 51 70 4.34639 $w=3.05e-07 $l=8.5e-08 $layer=LI1_cond $X=12.102 $Y=1.3
+ $X2=12.102 $Y2=1.215
r253 51 53 12.658 $w=3.03e-07 $l=3.35e-07 $layer=LI1_cond $X=12.102 $Y=1.3
+ $X2=12.102 $Y2=1.635
r254 49 69 2.27611 $w=1.7e-07 $l=1.52e-07 $layer=LI1_cond $X=11.95 $Y=0.935
+ $X2=12.102 $Y2=0.935
r255 49 50 35.2299 $w=1.68e-07 $l=5.4e-07 $layer=LI1_cond $X=11.95 $Y=0.935
+ $X2=11.41 $Y2=0.935
r256 48 50 6.81649 $w=1.7e-07 $l=1.20208e-07 $layer=LI1_cond $X=11.325 $Y=0.85
+ $X2=11.41 $Y2=0.935
r257 47 48 27.7273 $w=1.68e-07 $l=4.25e-07 $layer=LI1_cond $X=11.325 $Y=0.425
+ $X2=11.325 $Y2=0.85
r258 45 47 6.81649 $w=1.7e-07 $l=1.20208e-07 $layer=LI1_cond $X=11.24 $Y=0.34
+ $X2=11.325 $Y2=0.425
r259 45 46 33.2727 $w=1.68e-07 $l=5.1e-07 $layer=LI1_cond $X=11.24 $Y=0.34
+ $X2=10.73 $Y2=0.34
r260 43 46 6.81649 $w=1.7e-07 $l=1.20208e-07 $layer=LI1_cond $X=10.645 $Y=0.425
+ $X2=10.73 $Y2=0.34
r261 43 44 27.7273 $w=1.68e-07 $l=4.25e-07 $layer=LI1_cond $X=10.645 $Y=0.425
+ $X2=10.645 $Y2=0.85
r262 42 65 3.22376 $w=1.7e-07 $l=1.55e-07 $layer=LI1_cond $X=9.69 $Y=0.935
+ $X2=9.535 $Y2=0.935
r263 41 44 6.81649 $w=1.7e-07 $l=1.20208e-07 $layer=LI1_cond $X=10.56 $Y=0.935
+ $X2=10.645 $Y2=0.85
r264 41 42 56.7594 $w=1.68e-07 $l=8.7e-07 $layer=LI1_cond $X=10.56 $Y=0.935
+ $X2=9.69 $Y2=0.935
r265 40 65 4.66935 $w=2.6e-07 $l=1.09087e-07 $layer=LI1_cond $X=9.59 $Y=0.85
+ $X2=9.535 $Y2=0.935
r266 39 40 23.5682 $w=1.98e-07 $l=4.25e-07 $layer=LI1_cond $X=9.59 $Y=0.425
+ $X2=9.59 $Y2=0.85
r267 38 64 5.16603 $w=1.7e-07 $l=8.5e-08 $layer=LI1_cond $X=8.87 $Y=0.34
+ $X2=8.785 $Y2=0.34
r268 37 39 6.87494 $w=1.7e-07 $l=1.36015e-07 $layer=LI1_cond $X=9.49 $Y=0.34
+ $X2=9.59 $Y2=0.425
r269 37 38 40.4492 $w=1.68e-07 $l=6.2e-07 $layer=LI1_cond $X=9.49 $Y=0.34
+ $X2=8.87 $Y2=0.34
r270 35 64 1.34256 $w=1.7e-07 $l=8.5e-08 $layer=LI1_cond $X=8.785 $Y=0.425
+ $X2=8.785 $Y2=0.34
r271 35 59 91.0107 $w=1.68e-07 $l=1.395e-06 $layer=LI1_cond $X=8.785 $Y=0.425
+ $X2=8.785 $Y2=1.82
r272 31 61 9.5026 $w=2.83e-07 $l=2.35e-07 $layer=LI1_cond $X=8.727 $Y=1.98
+ $X2=8.727 $Y2=2.215
r273 31 59 8.33135 $w=2.83e-07 $l=1.6e-07 $layer=LI1_cond $X=8.727 $Y=1.98
+ $X2=8.727 $Y2=1.82
r274 31 33 10.9842 $w=3.18e-07 $l=3.05e-07 $layer=LI1_cond $X=8.585 $Y=1.98
+ $X2=8.28 $Y2=1.98
r275 29 64 5.16603 $w=1.7e-07 $l=8.5e-08 $layer=LI1_cond $X=8.7 $Y=0.34
+ $X2=8.785 $Y2=0.34
r276 29 30 42.4064 $w=1.68e-07 $l=6.5e-07 $layer=LI1_cond $X=8.7 $Y=0.34
+ $X2=8.05 $Y2=0.34
r277 25 30 7.14316 $w=1.7e-07 $l=1.62019e-07 $layer=LI1_cond $X=7.925 $Y=0.425
+ $X2=8.05 $Y2=0.34
r278 25 27 4.14879 $w=2.48e-07 $l=9e-08 $layer=LI1_cond $X=7.925 $Y=0.425
+ $X2=7.925 $Y2=0.515
r279 24 88 248.691 $w=1.5e-07 $l=4.85e-07 $layer=POLY_cond $X=13.175 $Y=2.04
+ $X2=13.175 $Y2=1.555
r280 19 21 91.58 $w=1.5e-07 $l=2.85e-07 $layer=POLY_cond $X=13.16 $Y=2.465
+ $X2=13.16 $Y2=2.75
r281 18 19 36.0588 $w=1.8e-07 $l=9e-08 $layer=POLY_cond $X=13.16 $Y=2.375
+ $X2=13.16 $Y2=2.465
r282 17 24 37.1337 $w=1.8e-07 $l=9e-08 $layer=POLY_cond $X=13.16 $Y=2.13
+ $X2=13.16 $Y2=2.04
r283 17 18 95.2339 $w=1.8e-07 $l=2.45e-07 $layer=POLY_cond $X=13.16 $Y=2.13
+ $X2=13.16 $Y2=2.375
r284 13 84 21.2229 $w=1.5e-07 $l=1.65e-07 $layer=POLY_cond $X=12.24 $Y=1.47
+ $X2=12.24 $Y2=1.635
r285 13 15 399.957 $w=1.5e-07 $l=7.8e-07 $layer=POLY_cond $X=12.24 $Y=1.47
+ $X2=12.24 $Y2=0.69
r286 12 80 102.827 $w=1.5e-07 $l=3.2e-07 $layer=POLY_cond $X=9.4 $Y=0.8 $X2=9.4
+ $Y2=1.12
r287 7 78 17.1008 $w=1.5e-07 $l=2.08e-07 $layer=POLY_cond $X=9.08 $Y=2.465
+ $X2=9.08 $Y2=2.257
r288 7 9 91.58 $w=1.5e-07 $l=2.85e-07 $layer=POLY_cond $X=9.08 $Y=2.465 $X2=9.08
+ $Y2=2.75
r289 2 33 600 $w=1.7e-07 $l=2.43721e-07 $layer=licon1_PDIFF $count=1 $X=8.13
+ $Y=1.84 $X2=8.28 $Y2=2.02
r290 1 27 91 $w=1.7e-07 $l=2.03286e-07 $layer=licon1_NDIFF $count=2 $X=7.745
+ $Y=0.37 $X2=7.885 $Y2=0.515
.ends

.subckt PM_SKY130_FD_SC_HS__SEDFXBP_1%A_1348_368# 1 2 9 11 13 15 16 20 22 24 26
+ 27 29 32 35 36 37 44 46 47 49 50 56 57 58 60 63 64 65 70
c198 57 0 1.59461e-19 $X=12.425 $Y=2.475
c199 56 0 2.0055e-20 $X=9.775 $Y=2.39
c200 37 0 1.93879e-19 $X=8.66 $Y=1.727
c201 27 0 9.34686e-20 $X=12.625 $Y=1.885
c202 24 0 2.35623e-19 $X=9.58 $Y=2.465
r203 70 71 145.28 $w=1.7e-07 $l=1.7e-07 $layer=licon1_POLY $count=1 $X=12.69
+ $Y=1.635 $X2=12.69 $Y2=1.635
r204 67 70 6.28605 $w=3.28e-07 $l=1.8e-07 $layer=LI1_cond $X=12.51 $Y=1.635
+ $X2=12.69 $Y2=1.635
r205 62 65 2.7938 $w=3.28e-07 $l=8e-08 $layer=LI1_cond $X=7.36 $Y=1.975 $X2=7.44
+ $Y2=1.975
r206 62 64 10.6514 $w=3.28e-07 $l=3.05e-07 $layer=LI1_cond $X=7.36 $Y=1.975
+ $X2=7.055 $Y2=1.975
r207 62 63 145.28 $w=1.7e-07 $l=1.7e-07 $layer=licon1_POLY $count=1 $X=7.36
+ $Y=1.975 $X2=7.36 $Y2=1.975
r208 59 67 4.62375 $w=1.7e-07 $l=1.65e-07 $layer=LI1_cond $X=12.51 $Y=1.8
+ $X2=12.51 $Y2=1.635
r209 59 60 38.492 $w=1.68e-07 $l=5.9e-07 $layer=LI1_cond $X=12.51 $Y=1.8
+ $X2=12.51 $Y2=2.39
r210 57 60 6.81649 $w=1.7e-07 $l=1.20208e-07 $layer=LI1_cond $X=12.425 $Y=2.475
+ $X2=12.51 $Y2=2.39
r211 57 58 167.342 $w=1.68e-07 $l=2.565e-06 $layer=LI1_cond $X=12.425 $Y=2.475
+ $X2=9.86 $Y2=2.475
r212 56 58 6.81649 $w=1.7e-07 $l=1.20208e-07 $layer=LI1_cond $X=9.775 $Y=2.39
+ $X2=9.86 $Y2=2.475
r213 55 56 11.0909 $w=1.68e-07 $l=1.7e-07 $layer=LI1_cond $X=9.775 $Y=2.22
+ $X2=9.775 $Y2=2.39
r214 52 53 145.28 $w=1.7e-07 $l=1.7e-07 $layer=licon1_POLY $count=1 $X=9.545
+ $Y=2.09 $X2=9.545 $Y2=2.09
r215 50 55 7.21222 $w=2.6e-07 $l=1.67183e-07 $layer=LI1_cond $X=9.69 $Y=2.09
+ $X2=9.775 $Y2=2.22
r216 50 52 6.42709 $w=2.58e-07 $l=1.45e-07 $layer=LI1_cond $X=9.69 $Y=2.09
+ $X2=9.545 $Y2=2.09
r217 49 65 4.62375 $w=1.7e-07 $l=1.65e-07 $layer=LI1_cond $X=7.44 $Y=1.81
+ $X2=7.44 $Y2=1.975
r218 48 49 52.1925 $w=1.68e-07 $l=8e-07 $layer=LI1_cond $X=7.44 $Y=1.01 $X2=7.44
+ $Y2=1.81
r219 46 48 6.81649 $w=1.7e-07 $l=1.20208e-07 $layer=LI1_cond $X=7.355 $Y=0.925
+ $X2=7.44 $Y2=1.01
r220 46 47 19.246 $w=1.68e-07 $l=2.95e-07 $layer=LI1_cond $X=7.355 $Y=0.925
+ $X2=7.06 $Y2=0.925
r221 42 47 7.76618 $w=1.7e-07 $l=2.03101e-07 $layer=LI1_cond $X=6.895 $Y=0.84
+ $X2=7.06 $Y2=0.925
r222 42 44 11.3498 $w=3.28e-07 $l=3.25e-07 $layer=LI1_cond $X=6.895 $Y=0.84
+ $X2=6.895 $Y2=0.515
r223 40 64 5.94228 $w=3.18e-07 $l=1.65e-07 $layer=LI1_cond $X=6.89 $Y=1.98
+ $X2=7.055 $Y2=1.98
r224 34 63 36.7209 $w=3.3e-07 $l=2.1e-07 $layer=POLY_cond $X=7.36 $Y=1.765
+ $X2=7.36 $Y2=1.975
r225 34 35 13.5877 $w=2.4e-07 $l=1.42653e-07 $layer=POLY_cond $X=7.36 $Y=1.765
+ $X2=7.47 $Y2=1.69
r226 30 71 38.5562 $w=2.99e-07 $l=1.92678e-07 $layer=POLY_cond $X=12.75 $Y=1.47
+ $X2=12.69 $Y2=1.635
r227 30 32 456.362 $w=1.5e-07 $l=8.9e-07 $layer=POLY_cond $X=12.75 $Y=1.47
+ $X2=12.75 $Y2=0.58
r228 27 71 52.2586 $w=2.99e-07 $l=2.80624e-07 $layer=POLY_cond $X=12.625
+ $Y=1.885 $X2=12.69 $Y2=1.635
r229 27 29 184.767 $w=1.5e-07 $l=5.75e-07 $layer=POLY_cond $X=12.625 $Y=1.885
+ $X2=12.625 $Y2=2.46
r230 24 53 83.4357 $w=2.34e-07 $l=3.9211e-07 $layer=POLY_cond $X=9.58 $Y=2.465
+ $X2=9.545 $Y2=2.09
r231 24 26 91.58 $w=1.5e-07 $l=2.85e-07 $layer=POLY_cond $X=9.58 $Y=2.465
+ $X2=9.58 $Y2=2.75
r232 23 37 20.4101 $w=1.5e-07 $l=9.20598e-08 $layer=POLY_cond $X=8.735 $Y=1.765
+ $X2=8.66 $Y2=1.727
r233 22 53 66.9444 $w=2.34e-07 $l=3.99061e-07 $layer=POLY_cond $X=9.38 $Y=1.765
+ $X2=9.545 $Y2=2.09
r234 22 23 330.734 $w=1.5e-07 $l=6.45e-07 $layer=POLY_cond $X=9.38 $Y=1.765
+ $X2=8.735 $Y2=1.765
r235 18 37 5.30422 $w=1.5e-07 $l=1.12e-07 $layer=POLY_cond $X=8.66 $Y=1.615
+ $X2=8.66 $Y2=1.727
r236 18 20 417.904 $w=1.5e-07 $l=8.15e-07 $layer=POLY_cond $X=8.66 $Y=1.615
+ $X2=8.66 $Y2=0.8
r237 17 36 20.4101 $w=1.5e-07 $l=7.5e-08 $layer=POLY_cond $X=8.13 $Y=1.69
+ $X2=8.055 $Y2=1.69
r238 16 37 20.4101 $w=1.5e-07 $l=9.16515e-08 $layer=POLY_cond $X=8.585 $Y=1.69
+ $X2=8.66 $Y2=1.727
r239 16 17 233.309 $w=1.5e-07 $l=4.55e-07 $layer=POLY_cond $X=8.585 $Y=1.69
+ $X2=8.13 $Y2=1.69
r240 13 36 5.30422 $w=1.5e-07 $l=7.5e-08 $layer=POLY_cond $X=8.055 $Y=1.765
+ $X2=8.055 $Y2=1.69
r241 13 15 204.047 $w=1.5e-07 $l=6.35e-07 $layer=POLY_cond $X=8.055 $Y=1.765
+ $X2=8.055 $Y2=2.4
r242 12 35 12.1617 $w=1.5e-07 $l=2.75e-07 $layer=POLY_cond $X=7.745 $Y=1.69
+ $X2=7.47 $Y2=1.69
r243 11 36 20.4101 $w=1.5e-07 $l=7.5e-08 $layer=POLY_cond $X=7.98 $Y=1.69
+ $X2=8.055 $Y2=1.69
r244 11 12 120.5 $w=1.5e-07 $l=2.35e-07 $layer=POLY_cond $X=7.98 $Y=1.69
+ $X2=7.745 $Y2=1.69
r245 7 35 13.5877 $w=2.4e-07 $l=2.34521e-07 $layer=POLY_cond $X=7.67 $Y=1.615
+ $X2=7.47 $Y2=1.69
r246 7 9 448.67 $w=1.5e-07 $l=8.75e-07 $layer=POLY_cond $X=7.67 $Y=1.615
+ $X2=7.67 $Y2=0.74
r247 2 40 600 $w=1.7e-07 $l=2.43721e-07 $layer=licon1_PDIFF $count=1 $X=6.74
+ $Y=1.84 $X2=6.89 $Y2=2.02
r248 1 44 91 $w=1.7e-07 $l=2.03286e-07 $layer=licon1_NDIFF $count=2 $X=6.755
+ $Y=0.37 $X2=6.895 $Y2=0.515
.ends

.subckt PM_SKY130_FD_SC_HS__SEDFXBP_1%A_1972_92# 1 2 9 12 13 15 18 19 20 22 23
+ 25 26 28 34 37 40 41 45 47 48
c107 40 0 1.73561e-19 $X=11.575 $Y=1.355
r108 45 51 40.6903 $w=3.3e-07 $l=1.65e-07 $layer=POLY_cond $X=10.025 $Y=1.32
+ $X2=10.025 $Y2=1.485
r109 45 50 46.2115 $w=3.3e-07 $l=1.65e-07 $layer=POLY_cond $X=10.025 $Y=1.32
+ $X2=10.025 $Y2=1.155
r110 44 47 8.69362 $w=2.58e-07 $l=1.65e-07 $layer=LI1_cond $X=10.025 $Y=1.32
+ $X2=10.19 $Y2=1.32
r111 44 45 145.28 $w=1.7e-07 $l=1.7e-07 $layer=licon1_POLY $count=1 $X=10.025
+ $Y=1.32 $X2=10.025 $Y2=1.32
r112 40 41 72.64 $w=1.7e-07 $l=3.4e-07 $layer=licon1_POLY $count=2 $X=11.575
+ $Y=1.355 $X2=11.575 $Y2=1.355
r113 38 48 1.96316 $w=3.3e-07 $l=8.5e-08 $layer=LI1_cond $X=11.07 $Y=1.355
+ $X2=10.985 $Y2=1.355
r114 38 40 17.6359 $w=3.28e-07 $l=5.05e-07 $layer=LI1_cond $X=11.07 $Y=1.355
+ $X2=11.575 $Y2=1.355
r115 36 48 4.30018 $w=1.7e-07 $l=1.65e-07 $layer=LI1_cond $X=10.985 $Y=1.52
+ $X2=10.985 $Y2=1.355
r116 36 37 34.5775 $w=1.68e-07 $l=5.3e-07 $layer=LI1_cond $X=10.985 $Y=1.52
+ $X2=10.985 $Y2=2.05
r117 32 48 4.30018 $w=1.7e-07 $l=1.65e-07 $layer=LI1_cond $X=10.985 $Y=1.19
+ $X2=10.985 $Y2=1.355
r118 32 34 24.7914 $w=1.68e-07 $l=3.8e-07 $layer=LI1_cond $X=10.985 $Y=1.19
+ $X2=10.985 $Y2=0.81
r119 28 37 6.81649 $w=1.7e-07 $l=1.20208e-07 $layer=LI1_cond $X=10.9 $Y=2.135
+ $X2=10.985 $Y2=2.05
r120 28 30 7.82888 $w=1.68e-07 $l=1.2e-07 $layer=LI1_cond $X=10.9 $Y=2.135
+ $X2=10.78 $Y2=2.135
r121 26 48 1.96316 $w=1.7e-07 $l=1.18427e-07 $layer=LI1_cond $X=10.9 $Y=1.275
+ $X2=10.985 $Y2=1.355
r122 26 47 46.3209 $w=1.68e-07 $l=7.1e-07 $layer=LI1_cond $X=10.9 $Y=1.275
+ $X2=10.19 $Y2=1.275
r123 23 25 134.96 $w=1.5e-07 $l=4.2e-07 $layer=POLY_cond $X=11.88 $Y=1.11