* File: sky130_fd_sc_hs__o41a_4.pex.spice
* Created: Thu Aug 27 21:04:24 2020
* Program "Calibre xRC"
* Version "v2018.4_34.26"
* Nominal Temperature: 27C
* Circuit Temperature: 27C
* 
.subckt PM_SKY130_FD_SC_HS__O41A_4%A_110_48# 1 2 3 12 14 16 19 21 23 26 28 30 33
+ 35 37 38 45 46 47 52 56 60
c130 52 0 2.7959e-19 $X=3.19 $Y=0.765
c131 46 0 1.29575e-19 $X=2.945 $Y=1.6
c132 14 0 1.00405e-19 $X=0.835 $Y=1.765
r133 67 68 30.2764 $w=3.98e-07 $l=2.5e-07 $layer=POLY_cond $X=1.735 $Y=1.517
+ $X2=1.985 $Y2=1.517
r134 66 67 21.799 $w=3.98e-07 $l=1.8e-07 $layer=POLY_cond $X=1.555 $Y=1.517
+ $X2=1.735 $Y2=1.517
r135 65 66 32.6985 $w=3.98e-07 $l=2.7e-07 $layer=POLY_cond $X=1.285 $Y=1.517
+ $X2=1.555 $Y2=1.517
r136 64 65 27.8543 $w=3.98e-07 $l=2.3e-07 $layer=POLY_cond $X=1.055 $Y=1.517
+ $X2=1.285 $Y2=1.517
r137 63 64 26.6432 $w=3.98e-07 $l=2.2e-07 $layer=POLY_cond $X=0.835 $Y=1.517
+ $X2=1.055 $Y2=1.517
r138 54 60 3.80956 $w=1.7e-07 $l=1.65e-07 $layer=LI1_cond $X=3.11 $Y=2.035
+ $X2=2.945 $Y2=2.035
r139 54 56 114.171 $w=1.68e-07 $l=1.75e-06 $layer=LI1_cond $X=3.11 $Y=2.035
+ $X2=4.86 $Y2=2.035
r140 50 58 15.2248 $w=3.31e-07 $l=4.08448e-07 $layer=LI1_cond $X=3.19 $Y=1.1
+ $X2=3.027 $Y2=1.435
r141 50 52 21.8556 $w=1.68e-07 $l=3.35e-07 $layer=LI1_cond $X=3.19 $Y=1.1
+ $X2=3.19 $Y2=0.765
r142 47 60 2.88756 $w=3.3e-07 $l=8.5e-08 $layer=LI1_cond $X=2.945 $Y=1.95
+ $X2=2.945 $Y2=2.035
r143 46 58 6.08157 $w=3.31e-07 $l=2.01879e-07 $layer=LI1_cond $X=2.945 $Y=1.6
+ $X2=3.027 $Y2=1.435
r144 46 47 12.2229 $w=3.28e-07 $l=3.5e-07 $layer=LI1_cond $X=2.945 $Y=1.6
+ $X2=2.945 $Y2=1.95
r145 45 70 9.08291 $w=3.98e-07 $l=7.5e-08 $layer=POLY_cond $X=2.11 $Y=1.517
+ $X2=2.185 $Y2=1.517
r146 45 68 15.1382 $w=3.98e-07 $l=1.25e-07 $layer=POLY_cond $X=2.11 $Y=1.517
+ $X2=1.985 $Y2=1.517
r147 44 45 58.112 $w=1.7e-07 $l=4.25e-07 $layer=licon1_POLY $count=2 $X=2.11
+ $Y=1.435 $X2=2.11 $Y2=1.435
r148 41 63 10.294 $w=3.98e-07 $l=8.5e-08 $layer=POLY_cond $X=0.75 $Y=1.517
+ $X2=0.835 $Y2=1.517
r149 41 61 15.1382 $w=3.98e-07 $l=1.25e-07 $layer=POLY_cond $X=0.75 $Y=1.517
+ $X2=0.625 $Y2=1.517
r150 40 44 47.4946 $w=3.28e-07 $l=1.36e-06 $layer=LI1_cond $X=0.75 $Y=1.435
+ $X2=2.11 $Y2=1.435
r151 40 41 58.112 $w=1.7e-07 $l=4.25e-07 $layer=licon1_POLY $count=2 $X=0.75
+ $Y=1.435 $X2=0.75 $Y2=1.435
r152 38 58 0.734941 $w=3.3e-07 $l=2.47e-07 $layer=LI1_cond $X=2.78 $Y=1.435
+ $X2=3.027 $Y2=1.435
r153 38 44 23.3981 $w=3.28e-07 $l=6.7e-07 $layer=LI1_cond $X=2.78 $Y=1.435
+ $X2=2.11 $Y2=1.435
r154 35 70 25.7394 $w=1.5e-07 $l=2.48e-07 $layer=POLY_cond $X=2.185 $Y=1.765
+ $X2=2.185 $Y2=1.517
r155 35 37 204.047 $w=1.5e-07 $l=6.35e-07 $layer=POLY_cond $X=2.185 $Y=1.765
+ $X2=2.185 $Y2=2.4
r156 31 68 25.7394 $w=1.5e-07 $l=2.47e-07 $layer=POLY_cond $X=1.985 $Y=1.27
+ $X2=1.985 $Y2=1.517
r157 31 33 271.766 $w=1.5e-07 $l=5.3e-07 $layer=POLY_cond $X=1.985 $Y=1.27
+ $X2=1.985 $Y2=0.74
r158 28 67 25.7394 $w=1.5e-07 $l=2.48e-07 $layer=POLY_cond $X=1.735 $Y=1.765
+ $X2=1.735 $Y2=1.517
r159 28 30 204.047 $w=1.5e-07 $l=6.35e-07 $layer=POLY_cond $X=1.735 $Y=1.765
+ $X2=1.735 $Y2=2.4
r160 24 66 25.7394 $w=1.5e-07 $l=2.47e-07 $layer=POLY_cond $X=1.555 $Y=1.27
+ $X2=1.555 $Y2=1.517
r161 24 26 271.766 $w=1.5e-07 $l=5.3e-07 $layer=POLY_cond $X=1.555 $Y=1.27
+ $X2=1.555 $Y2=0.74
r162 21 65 25.7394 $w=1.5e-07 $l=2.48e-07 $layer=POLY_cond $X=1.285 $Y=1.765
+ $X2=1.285 $Y2=1.517
r163 21 23 204.047 $w=1.5e-07 $l=6.35e-07 $layer=POLY_cond $X=1.285 $Y=1.765
+ $X2=1.285 $Y2=2.4
r164 17 64 25.7394 $w=1.5e-07 $l=2.47e-07 $layer=POLY_cond $X=1.055 $Y=1.27
+ $X2=1.055 $Y2=1.517
r165 17 19 271.766 $w=1.5e-07 $l=5.3e-07 $layer=POLY_cond $X=1.055 $Y=1.27
+ $X2=1.055 $Y2=0.74
r166 14 63 25.7394 $w=1.5e-07 $l=2.48e-07 $layer=POLY_cond $X=0.835 $Y=1.765
+ $X2=0.835 $Y2=1.517
r167 14 16 204.047 $w=1.5e-07 $l=6.35e-07 $layer=POLY_cond $X=0.835 $Y=1.765
+ $X2=0.835 $Y2=2.4
r168 10 61 25.7394 $w=1.5e-07 $l=2.47e-07 $layer=POLY_cond $X=0.625 $Y=1.27
+ $X2=0.625 $Y2=1.517
r169 10 12 271.766 $w=1.5e-07 $l=5.3e-07 $layer=POLY_cond $X=0.625 $Y=1.27
+ $X2=0.625 $Y2=0.74
r170 3 56 600 $w=1.7e-07 $l=2.61247e-07 $layer=licon1_PDIFF $count=1 $X=4.705
+ $Y=1.84 $X2=4.86 $Y2=2.035
r171 2 60 300 $w=1.7e-07 $l=2.10357e-07 $layer=licon1_PDIFF $count=2 $X=2.795
+ $Y=1.93 $X2=2.945 $Y2=2.075
r172 1 52 91 $w=1.7e-07 $l=2.03286e-07 $layer=licon1_NDIFF $count=2 $X=3.05
+ $Y=0.62 $X2=3.19 $Y2=0.765
.ends

.subckt PM_SKY130_FD_SC_HS__O41A_4%B1 2 3 5 8 10 12 15 17 18 24
c58 24 0 8.86665e-20 $X=3.405 $Y=1.647
c59 18 0 1.29429e-20 $X=4.08 $Y=1.665
c60 15 0 2.69757e-19 $X=3.405 $Y=0.94
c61 8 0 1.93825e-19 $X=2.975 $Y=0.94
c62 2 0 1.29575e-19 $X=2.72 $Y=1.765
r63 26 27 145.28 $w=1.7e-07 $l=1.7e-07 $layer=licon1_POLY $count=1 $X=3.445
+ $Y=1.605 $X2=3.445 $Y2=1.605
r64 24 26 7.35878 $w=2.62e-07 $l=4e-08 $layer=POLY_cond $X=3.405 $Y=1.647
+ $X2=3.445 $Y2=1.647
r65 23 24 43.2328 $w=2.62e-07 $l=2.35e-07 $layer=POLY_cond $X=3.17 $Y=1.647
+ $X2=3.405 $Y2=1.647
r66 17 18 16.2698 $w=3.38e-07 $l=4.8e-07 $layer=LI1_cond $X=3.6 $Y=1.61 $X2=4.08
+ $Y2=1.61
r67 17 27 5.25378 $w=3.38e-07 $l=1.55e-07 $layer=LI1_cond $X=3.6 $Y=1.61
+ $X2=3.445 $Y2=1.61
r68 13 24 15.8058 $w=1.5e-07 $l=2.07e-07 $layer=POLY_cond $X=3.405 $Y=1.44
+ $X2=3.405 $Y2=1.647
r69 13 15 256.383 $w=1.5e-07 $l=5e-07 $layer=POLY_cond $X=3.405 $Y=1.44
+ $X2=3.405 $Y2=0.94
r70 10 23 15.8058 $w=1.5e-07 $l=2.08e-07 $layer=POLY_cond $X=3.17 $Y=1.855
+ $X2=3.17 $Y2=1.647
r71 10 12 159.06 $w=1.5e-07 $l=4.95e-07 $layer=POLY_cond $X=3.17 $Y=1.855
+ $X2=3.17 $Y2=2.35
r72 6 23 35.874 $w=2.62e-07 $l=2.88468e-07 $layer=POLY_cond $X=2.975 $Y=1.44
+ $X2=3.17 $Y2=1.647
r73 6 8 256.383 $w=1.5e-07 $l=5e-07 $layer=POLY_cond $X=2.975 $Y=1.44 $X2=2.975
+ $Y2=0.94
r74 3 5 159.06 $w=1.5e-07 $l=4.95e-07 $layer=POLY_cond $X=2.72 $Y=1.855 $X2=2.72
+ $Y2=2.35
r75 2 3 36.0588 $w=1.8e-07 $l=9e-08 $layer=POLY_cond $X=2.72 $Y=1.765 $X2=2.72
+ $Y2=1.855
r76 1 6 46.9122 $w=2.62e-07 $l=3.21364e-07 $layer=POLY_cond $X=2.72 $Y=1.59
+ $X2=2.975 $Y2=1.44
r77 1 2 68.0242 $w=1.8e-07 $l=1.75e-07 $layer=POLY_cond $X=2.72 $Y=1.59 $X2=2.72
+ $Y2=1.765
.ends

.subckt PM_SKY130_FD_SC_HS__O41A_4%A4 1 3 4 6 7 9 10 12 13 14 22
c52 14 0 1.02686e-19 $X=5.04 $Y=1.665
c53 10 0 1.44963e-19 $X=5.105 $Y=1.35
c54 1 0 1.29429e-20 $X=4.63 $Y=1.765
r55 22 23 1.928 $w=3.75e-07 $l=1.5e-08 $layer=POLY_cond $X=5.09 $Y=1.557
+ $X2=5.105 $Y2=1.557
r56 20 22 9.64 $w=3.75e-07 $l=7.5e-08 $layer=POLY_cond $X=5.015 $Y=1.557
+ $X2=5.09 $Y2=1.557
r57 20 21 72.64 $w=1.7e-07 $l=3.4e-07 $layer=licon1_POLY $count=2 $X=5.015
+ $Y=1.515 $X2=5.015 $Y2=1.515
r58 18 20 43.7013 $w=3.75e-07 $l=3.4e-07 $layer=POLY_cond $X=4.675 $Y=1.557
+ $X2=5.015 $Y2=1.557
r59 17 18 5.784 $w=3.75e-07 $l=4.5e-08 $layer=POLY_cond $X=4.63 $Y=1.557
+ $X2=4.675 $Y2=1.557
r60 14 21 0.81158 $w=3.53e-07 $l=2.5e-08 $layer=LI1_cond $X=5.04 $Y=1.602
+ $X2=5.015 $Y2=1.602
r61 13 21 14.7707 $w=3.53e-07 $l=4.55e-07 $layer=LI1_cond $X=4.56 $Y=1.602
+ $X2=5.015 $Y2=1.602
r62 10 23 24.2915 $w=1.5e-07 $l=2.07e-07 $layer=POLY_cond $X=5.105 $Y=1.35
+ $X2=5.105 $Y2=1.557
r63 10 12 138.173 $w=1.5e-07 $l=4.3e-07 $layer=POLY_cond $X=5.105 $Y=1.35
+ $X2=5.105 $Y2=0.92
r64 7 22 24.2915 $w=1.5e-07 $l=2.08e-07 $layer=POLY_cond $X=5.09 $Y=1.765
+ $X2=5.09 $Y2=1.557
r65 7 9 204.047 $w=1.5e-07 $l=6.35e-07 $layer=POLY_cond $X=5.09 $Y=1.765
+ $X2=5.09 $Y2=2.4
r66 4 18 24.2915 $w=1.5e-07 $l=2.07e-07 $layer=POLY_cond $X=4.675 $Y=1.35
+ $X2=4.675 $Y2=1.557
r67 4 6 138.173 $w=1.5e-07 $l=4.3e-07 $layer=POLY_cond $X=4.675 $Y=1.35
+ $X2=4.675 $Y2=0.92
r68 1 17 24.2915 $w=1.5e-07 $l=2.08e-07 $layer=POLY_cond $X=4.63 $Y=1.765
+ $X2=4.63 $Y2=1.557
r69 1 3 204.047 $w=1.5e-07 $l=6.35e-07 $layer=POLY_cond $X=4.63 $Y=1.765
+ $X2=4.63 $Y2=2.4
.ends

.subckt PM_SKY130_FD_SC_HS__O41A_4%A3 4 5 6 7 9 10 12 13 17 18 20 26 28 32
c82 32 0 1.29962e-19 $X=4.04 $Y=0.345
c83 17 0 1.4317e-19 $X=5.535 $Y=0.92
c84 7 0 1.91353e-19 $X=4.18 $Y=1.765
r85 31 33 46.504 $w=3.55e-07 $l=1.65e-07 $layer=POLY_cond $X=4.027 $Y=0.345
+ $X2=4.027 $Y2=0.51
r86 31 32 145.28 $w=1.7e-07 $l=1.7e-07 $layer=licon1_POLY $count=1 $X=4.04
+ $Y=0.345 $X2=4.04 $Y2=0.345
r87 28 31 26.0075 $w=3.55e-07 $l=1.6e-07 $layer=POLY_cond $X=4.027 $Y=0.185
+ $X2=4.027 $Y2=0.345
r88 26 32 7.33373 $w=3.28e-07 $l=2.1e-07 $layer=LI1_cond $X=4.04 $Y=0.555
+ $X2=4.04 $Y2=0.345
r89 18 20 204.047 $w=1.5e-07 $l=6.35e-07 $layer=POLY_cond $X=5.54 $Y=1.765
+ $X2=5.54 $Y2=2.4
r90 17 25 202.543 $w=1.5e-07 $l=3.95e-07 $layer=POLY_cond $X=5.535 $Y=0.92
+ $X2=5.535 $Y2=1.315
r91 14 17 338.426 $w=1.5e-07 $l=6.6e-07 $layer=POLY_cond $X=5.535 $Y=0.26
+ $X2=5.535 $Y2=0.92
r92 13 18 36.0588 $w=1.8e-07 $l=9e-08 $layer=POLY_cond $X=5.54 $Y=1.675 $X2=5.54
+ $Y2=1.765
r93 12 25 36.2738 $w=1.8e-07 $l=9e-08 $layer=POLY_cond $X=5.54 $Y=1.405 $X2=5.54
+ $Y2=1.315
r94 12 13 104.952 $w=1.8e-07 $l=2.7e-07 $layer=POLY_cond $X=5.54 $Y=1.405
+ $X2=5.54 $Y2=1.675
r95 11 28 22.9692 $w=1.5e-07 $l=1.78e-07 $layer=POLY_cond $X=4.205 $Y=0.185
+ $X2=4.027 $Y2=0.185
r96 10 14 26.9307 $w=1.5e-07 $l=1.06066e-07 $layer=POLY_cond $X=5.46 $Y=0.185
+ $X2=5.535 $Y2=0.26
r97 10 11 643.521 $w=1.5e-07 $l=1.255e-06 $layer=POLY_cond $X=5.46 $Y=0.185
+ $X2=4.205 $Y2=0.185
r98 7 9 204.047 $w=1.5e-07 $l=6.35e-07 $layer=POLY_cond $X=4.18 $Y=1.765
+ $X2=4.18 $Y2=2.4
r99 6 7 36.0588 $w=1.8e-07 $l=9e-08 $layer=POLY_cond $X=4.18 $Y=1.675 $X2=4.18
+ $Y2=1.765
r100 5 21 130.755 $w=1.5e-07 $l=2.55e-07 $layer=POLY_cond $X=4.18 $Y=1.41
+ $X2=3.925 $Y2=1.41
r101 5 6 73.8548 $w=1.8e-07 $l=1.9e-07 $layer=POLY_cond $X=4.18 $Y=1.485
+ $X2=4.18 $Y2=1.675
r102 4 33 220.489 $w=1.5e-07 $l=4.3e-07 $layer=POLY_cond $X=3.925 $Y=0.94
+ $X2=3.925 $Y2=0.51
r103 2 21 2.83073 $w=1.5e-07 $l=7.5e-08 $layer=POLY_cond $X=3.925 $Y=1.335
+ $X2=3.925 $Y2=1.41
r104 2 4 202.543 $w=1.5e-07 $l=3.95e-07 $layer=POLY_cond $X=3.925 $Y=1.335
+ $X2=3.925 $Y2=0.94
.ends

.subckt PM_SKY130_FD_SC_HS__O41A_4%A1 1 3 4 6 7 9 10 12 13 14 22
c53 7 0 1.74935e-19 $X=6.835 $Y=1.35
r54 22 23 13.2725 $w=3.45e-07 $l=9.5e-08 $layer=POLY_cond $X=6.835 $Y=1.557
+ $X2=6.93 $Y2=1.557
r55 20 22 47.5014 $w=3.45e-07 $l=3.4e-07 $layer=POLY_cond $X=6.495 $Y=1.557
+ $X2=6.835 $Y2=1.557
r56 20 21 145.28 $w=1.7e-07 $l=1.7e-07 $layer=licon1_POLY $count=1 $X=6.495
+ $Y=1.515 $X2=6.495 $Y2=1.515
r57 18 20 7.68406 $w=3.45e-07 $l=5.5e-08 $layer=POLY_cond $X=6.44 $Y=1.557
+ $X2=6.495 $Y2=1.557
r58 17 18 4.88985 $w=3.45e-07 $l=3.5e-08 $layer=POLY_cond $X=6.405 $Y=1.557
+ $X2=6.44 $Y2=1.557
r59 14 21 14.8857 $w=3.58e-07 $l=4.65e-07 $layer=LI1_cond $X=6.96 $Y=1.6
+ $X2=6.495 $Y2=1.6
r60 13 21 0.480185 $w=3.58e-07 $l=1.5e-08 $layer=LI1_cond $X=6.48 $Y=1.6
+ $X2=6.495 $Y2=1.6
r61 10 23 22.2839 $w=1.5e-07 $l=2.08e-07 $layer=POLY_cond $X=6.93 $Y=1.765
+ $X2=6.93 $Y2=1.557
r62 10 12 204.047 $w=1.5e-07 $l=6.35e-07 $layer=POLY_cond $X=6.93 $Y=1.765
+ $X2=6.93 $Y2=2.4
r63 7 22 22.2839 $w=1.5e-07 $l=2.07e-07 $layer=POLY_cond $X=6.835 $Y=1.35
+ $X2=6.835 $Y2=1.557
r64 7 9 138.173 $w=1.5e-07 $l=4.3e-07 $layer=POLY_cond $X=6.835 $Y=1.35
+ $X2=6.835 $Y2=0.92
r65 4 18 22.2839 $w=1.5e-07 $l=2.08e-07 $layer=POLY_cond $X=6.44 $Y=1.765
+ $X2=6.44 $Y2=1.557
r66 4 6 204.047 $w=1.5e-07 $l=6.35e-07 $layer=POLY_cond $X=6.44 $Y=1.765
+ $X2=6.44 $Y2=2.4
r67 1 17 22.2839 $w=1.5e-07 $l=2.07e-07 $layer=POLY_cond $X=6.405 $Y=1.35
+ $X2=6.405 $Y2=1.557
r68 1 3 138.173 $w=1.5e-07 $l=4.3e-07 $layer=POLY_cond $X=6.405 $Y=1.35
+ $X2=6.405 $Y2=0.92
.ends

.subckt PM_SKY130_FD_SC_HS__O41A_4%A2 4 5 6 7 9 10 11 15 17 18 20 23 24
c71 24 0 2.99718e-20 $X=7.92 $Y=0.555
c72 4 0 3.02049e-19 $X=5.975 $Y=0.92
r73 29 31 45.1558 $w=3.75e-07 $l=1.65e-07 $layer=POLY_cond $X=7.447 $Y=0.34
+ $X2=7.447 $Y2=0.505
r74 29 30 145.28 $w=1.7e-07 $l=1.7e-07 $layer=licon1_POLY $count=1 $X=7.47
+ $Y=0.34 $X2=7.47 $Y2=0.34
r75 24 30 21.2791 $w=2.58e-07 $l=4.5e-07 $layer=LI1_cond $X=7.92 $Y=0.462
+ $X2=7.47 $Y2=0.462
r76 22 23 60.4563 $w=1.8e-07 $l=1.5e-07 $layer=POLY_cond $X=7.39 $Y=1.33
+ $X2=7.39 $Y2=1.48
r77 18 20 204.047 $w=1.5e-07 $l=6.35e-07 $layer=POLY_cond $X=7.43 $Y=1.765
+ $X2=7.43 $Y2=2.4
r78 17 18 36.0588 $w=1.8e-07 $l=9e-08 $layer=POLY_cond $X=7.43 $Y=1.675 $X2=7.43
+ $Y2=1.765
r79 17 23 75.7984 $w=1.8e-07 $l=1.95e-07 $layer=POLY_cond $X=7.43 $Y=1.675
+ $X2=7.43 $Y2=1.48
r80 15 22 202.543 $w=1.5e-07 $l=3.95e-07 $layer=POLY_cond $X=7.335 $Y=0.935
+ $X2=7.335 $Y2=1.33
r81 15 31 220.489 $w=1.5e-07 $l=4.3e-07 $layer=POLY_cond $X=7.335 $Y=0.935
+ $X2=7.335 $Y2=0.505
r82 10 29 22.9877 $w=3.75e-07 $l=1.55e-07 $layer=POLY_cond $X=7.447 $Y=0.185
+ $X2=7.447 $Y2=0.34
r83 10 11 620.447 $w=1.5e-07 $l=1.21e-06 $layer=POLY_cond $X=7.26 $Y=0.185
+ $X2=6.05 $Y2=0.185
r84 7 9 204.047 $w=1.5e-07 $l=6.35e-07 $layer=POLY_cond $X=5.99 $Y=1.765
+ $X2=5.99 $Y2=2.4
r85 6 7 36.0588 $w=1.8e-07 $l=9e-08 $layer=POLY_cond $X=5.99 $Y=1.675 $X2=5.99
+ $Y2=1.765
r86 5 21 37.1337 $w=1.8e-07 $l=9e-08 $layer=POLY_cond $X=5.99 $Y=1.405 $X2=5.99
+ $Y2=1.315
r87 5 6 104.952 $w=1.8e-07 $l=2.7e-07 $layer=POLY_cond $X=5.99 $Y=1.405 $X2=5.99
+ $Y2=1.675
r88 4 21 202.543 $w=1.5e-07 $l=3.95e-07 $layer=POLY_cond $X=5.975 $Y=0.92
+ $X2=5.975 $Y2=1.315
r89 1 11 26.9307 $w=1.5e-07 $l=1.06066e-07 $layer=POLY_cond $X=5.975 $Y=0.26
+ $X2=6.05 $Y2=0.185
r90 1 4 338.426 $w=1.5e-07 $l=6.6e-07 $layer=POLY_cond $X=5.975 $Y=0.26
+ $X2=5.975 $Y2=0.92
.ends

.subckt PM_SKY130_FD_SC_HS__O41A_4%VPWR 1 2 3 4 5 18 22 26 30 34 37 38 40 41 43
+ 44 46 47 49 50 51 76 77
r98 76 77 6.2 $w=1.7e-07 $l=2.55e-07 $layer=mcon $count=1 $X=7.92 $Y=3.33
+ $X2=7.92 $Y2=3.33
r99 74 77 0.267585 $w=4.9e-07 $l=9.6e-07 $layer=MET1_cond $X=6.96 $Y=3.33
+ $X2=7.92 $Y2=3.33
r100 73 76 62.631 $w=1.68e-07 $l=9.6e-07 $layer=LI1_cond $X=6.96 $Y=3.33
+ $X2=7.92 $Y2=3.33
r101 73 74 6.2 $w=1.7e-07 $l=2.55e-07 $layer=mcon $count=1 $X=6.96 $Y=3.33
+ $X2=6.96 $Y2=3.33
r102 71 74 0.133793 $w=4.9e-07 $l=4.8e-07 $layer=MET1_cond $X=6.48 $Y=3.33
+ $X2=6.96 $Y2=3.33
r103 70 71 2.65714 $w=1.7e-07 $l=5.95e-07 $layer=mcon $count=3 $X=6.48 $Y=3.33
+ $X2=6.48 $Y2=3.33
r104 67 70 187.893 $w=1.68e-07 $l=2.88e-06 $layer=LI1_cond $X=3.6 $Y=3.33
+ $X2=6.48 $Y2=3.33
r105 67 68 2.65714 $w=1.7e-07 $l=5.95e-07 $layer=mcon $count=3 $X=3.6 $Y=3.33
+ $X2=3.6 $Y2=3.33
r106 65 68 0.133793 $w=4.9e-07 $l=4.8e-07 $layer=MET1_cond $X=3.12 $Y=3.33
+ $X2=3.6 $Y2=3.33
r107 64 65 4.65 $w=1.7e-07 $l=3.4e-07 $layer=mcon $count=2 $X=3.12 $Y=3.33
+ $X2=3.12 $Y2=3.33
r108 62 65 0.267585 $w=4.9e-07 $l=9.6e-07 $layer=MET1_cond $X=2.16 $Y=3.33
+ $X2=3.12 $Y2=3.33
r109 61 62 4.65 $w=1.7e-07 $l=3.4e-07 $layer=mcon $count=2 $X=2.16 $Y=3.33
+ $X2=2.16 $Y2=3.33
r110 59 62 0.267585 $w=4.9e-07 $l=9.6e-07 $layer=MET1_cond $X=1.2 $Y=3.33
+ $X2=2.16 $Y2=3.33
r111 58 59 4.65 $w=1.7e-07 $l=3.4e-07 $layer=mcon $count=2 $X=1.2 $Y=3.33
+ $X2=1.2 $Y2=3.33
r112 55 59 0.267585 $w=4.9e-07 $l=9.6e-07 $layer=MET1_cond $X=0.24 $Y=3.33
+ $X2=1.2 $Y2=3.33
r113 54 55 9.3 $w=1.7e-07 $l=1.7e-07 $layer=mcon $count=1 $X=0.24 $Y=3.33
+ $X2=0.24 $Y2=3.33
r114 51 71 0.668963 $w=4.9e-07 $l=2.4e-06 $layer=MET1_cond $X=4.08 $Y=3.33
+ $X2=6.48 $Y2=3.33
r115 51 68 0.133793 $w=4.9e-07 $l=4.8e-07 $layer=MET1_cond $X=4.08 $Y=3.33
+ $X2=3.6 $Y2=3.33
r116 49 70 6.52406 $w=1.68e-07 $l=1e-07 $layer=LI1_cond $X=6.58 $Y=3.33 $X2=6.48
+ $Y2=3.33
r117 49 50 7.85057 $w=1.7e-07 $l=1.45e-07 $layer=LI1_cond $X=6.58 $Y=3.33
+ $X2=6.725 $Y2=3.33
r118 48 73 5.87166 $w=1.68e-07 $l=9e-08 $layer=LI1_cond $X=6.87 $Y=3.33 $X2=6.96
+ $Y2=3.33
r119 48 50 7.85057 $w=1.7e-07 $l=1.45e-07 $layer=LI1_cond $X=6.87 $Y=3.33
+ $X2=6.725 $Y2=3.33
r120 46 64 12.3957 $w=1.68e-07 $l=1.9e-07 $layer=LI1_cond $X=3.31 $Y=3.33
+ $X2=3.12 $Y2=3.33
r121 46 47 7.02821 $w=1.7e-07 $l=1.25e-07 $layer=LI1_cond $X=3.31 $Y=3.33
+ $X2=3.435 $Y2=3.33
r122 45 67 2.60963 $w=1.68e-07 $l=4e-08 $layer=LI1_cond $X=3.56 $Y=3.33 $X2=3.6
+ $Y2=3.33
r123 45 47 7.02821 $w=1.7e-07 $l=1.25e-07 $layer=LI1_cond $X=3.56 $Y=3.33
+ $X2=3.435 $Y2=3.33
r124 43 61 10.7647 $w=1.68e-07 $l=1.65e-07 $layer=LI1_cond $X=2.325 $Y=3.33
+ $X2=2.16 $Y2=3.33
r125 43 44 7.02821 $w=1.7e-07 $l=1.25e-07 $layer=LI1_cond $X=2.325 $Y=3.33
+ $X2=2.45 $Y2=3.33
r126 42 64 35.5561 $w=1.68e-07 $l=5.45e-07 $layer=LI1_cond $X=2.575 $Y=3.33
+ $X2=3.12 $Y2=3.33
r127 42 44 7.02821 $w=1.7e-07 $l=1.25e-07 $layer=LI1_cond $X=2.575 $Y=3.33
+ $X2=2.45 $Y2=3.33
r128 40 58 14.6791 $w=1.68e-07 $l=2.25e-07 $layer=LI1_cond $X=1.425 $Y=3.33
+ $X2=1.2 $Y2=3.33
r129 40 41 5.16603 $w=1.7e-07 $l=8.5e-08 $layer=LI1_cond $X=1.425 $Y=3.33
+ $X2=1.51 $Y2=3.33
r130 39 61 36.861 $w=1.68e-07 $l=5.65e-07 $layer=LI1_cond $X=1.595 $Y=3.33
+ $X2=2.16 $Y2=3.33
r131 39 41 5.16603 $w=1.7e-07 $l=8.5e-08 $layer=LI1_cond $X=1.595 $Y=3.33
+ $X2=1.51 $Y2=3.33
r132 37 54 18.5936 $w=1.68e-07 $l=2.85e-07 $layer=LI1_cond $X=0.525 $Y=3.33
+ $X2=0.24 $Y2=3.33
r133 37 38 5.16603 $w=1.7e-07 $l=8.5e-08 $layer=LI1_cond $X=0.525 $Y=3.33
+ $X2=0.61 $Y2=3.33
r134 36 58 32.9465 $w=1.68e-07 $l=5.05e-07 $layer=LI1_cond $X=0.695 $Y=3.33
+ $X2=1.2 $Y2=3.33
r135 36 38 5.16603 $w=1.7e-07 $l=8.5e-08 $layer=LI1_cond $X=0.695 $Y=3.33
+ $X2=0.61 $Y2=3.33
r136 32 50 0.489042 $w=2.9e-07 $l=8.5e-08 $layer=LI1_cond $X=6.725 $Y=3.245
+ $X2=6.725 $Y2=3.33
r137 32 34 17.0879 $w=2.88e-07 $l=4.3e-07 $layer=LI1_cond $X=6.725 $Y=3.245
+ $X2=6.725 $Y2=2.815
r138 28 47 0.00168595 $w=2.5e-07 $l=8.5e-08 $layer=LI1_cond $X=3.435 $Y=3.245
+ $X2=3.435 $Y2=3.33
r139 28 30 32.4989 $w=2.48e-07 $l=7.05e-07 $layer=LI1_cond $X=3.435 $Y=3.245
+ $X2=3.435 $Y2=2.54
r140 24 44 0.00168595 $w=2.5e-07 $l=8.5e-08 $layer=LI1_cond $X=2.45 $Y=3.245
+ $X2=2.45 $Y2=3.33
r141 24 26 53.9343 $w=2.48e-07 $l=1.17e-06 $layer=LI1_cond $X=2.45 $Y=3.245
+ $X2=2.45 $Y2=2.075
r142 20 41 1.34256 $w=1.7e-07 $l=8.5e-08 $layer=LI1_cond $X=1.51 $Y=3.245
+ $X2=1.51 $Y2=3.33
r143 20 22 63.2834 $w=1.68e-07 $l=9.7e-07 $layer=LI1_cond $X=1.51 $Y=3.245
+ $X2=1.51 $Y2=2.275
r144 16 38 1.34256 $w=1.7e-07 $l=8.5e-08 $layer=LI1_cond $X=0.61 $Y=3.245
+ $X2=0.61 $Y2=3.33
r145 16 18 63.2834 $w=1.68e-07 $l=9.7e-07 $layer=LI1_cond $X=0.61 $Y=3.245
+ $X2=0.61 $Y2=2.275
r146 5 34 600 $w=1.7e-07 $l=1.05659e-06 $layer=licon1_PDIFF $count=1 $X=6.515
+ $Y=1.84 $X2=6.685 $Y2=2.815
r147 4 30 600 $w=1.7e-07 $l=6.80882e-07 $layer=licon1_PDIFF $count=1 $X=3.245
+ $Y=1.93 $X2=3.395 $Y2=2.54
r148 3 26 300 $w=1.7e-07 $l=3.00791e-07 $layer=licon1_PDIFF $count=2 $X=2.26
+ $Y=1.84 $X2=2.41 $Y2=2.075
r149 2 22 300 $w=1.7e-07 $l=5.04455e-07 $layer=licon1_PDIFF $count=2 $X=1.36
+ $Y=1.84 $X2=1.51 $Y2=2.275
r150 1 18 300 $w=1.7e-07 $l=5.02295e-07 $layer=licon1_PDIFF $count=2 $X=0.465
+ $Y=1.84 $X2=0.61 $Y2=2.275
.ends

.subckt PM_SKY130_FD_SC_HS__O41A_4%X 1 2 3 4 14 15 16 17 21 25 29 31 35 39 44 45
+ 46 47 48 49
c80 14 0 2.6106e-19 $X=0.21 $Y=1.77
r81 48 49 18.5393 $w=2.28e-07 $l=3.7e-07 $layer=LI1_cond $X=0.24 $Y=2.405
+ $X2=0.24 $Y2=2.775
r82 47 48 18.5393 $w=2.28e-07 $l=3.7e-07 $layer=LI1_cond $X=0.24 $Y=2.035
+ $X2=0.24 $Y2=2.405
r83 43 47 4.76009 $w=2.28e-07 $l=9.5e-08 $layer=LI1_cond $X=0.24 $Y=1.94
+ $X2=0.24 $Y2=2.035
r84 43 44 4.50329 $w=2e-07 $l=8.5e-08 $layer=LI1_cond $X=0.24 $Y=1.94 $X2=0.24
+ $Y2=1.855
r85 39 41 28.9857 $w=3.28e-07 $l=8.3e-07 $layer=LI1_cond $X=1.96 $Y=1.985
+ $X2=1.96 $Y2=2.815
r86 37 39 1.57151 $w=3.28e-07 $l=4.5e-08 $layer=LI1_cond $X=1.96 $Y=1.94
+ $X2=1.96 $Y2=1.985
r87 33 35 19.1306 $w=2.48e-07 $l=4.15e-07 $layer=LI1_cond $X=1.73 $Y=0.93
+ $X2=1.73 $Y2=0.515
r88 32 46 8.61065 $w=1.7e-07 $l=1.65e-07 $layer=LI1_cond $X=1.225 $Y=1.855
+ $X2=1.06 $Y2=1.855
r89 31 37 7.76618 $w=1.7e-07 $l=2.03101e-07 $layer=LI1_cond $X=1.795 $Y=1.855
+ $X2=1.96 $Y2=1.94
r90 31 32 37.1872 $w=1.68e-07 $l=5.7e-07 $layer=LI1_cond $X=1.795 $Y=1.855
+ $X2=1.225 $Y2=1.855
r91 30 45 7.02821 $w=1.7e-07 $l=1.25e-07 $layer=LI1_cond $X=0.925 $Y=1.015
+ $X2=0.8 $Y2=1.015
r92 29 33 7.14316 $w=1.7e-07 $l=1.62019e-07 $layer=LI1_cond $X=1.605 $Y=1.015
+ $X2=1.73 $Y2=0.93
r93 29 30 44.3636 $w=1.68e-07 $l=6.8e-07 $layer=LI1_cond $X=1.605 $Y=1.015
+ $X2=0.925 $Y2=1.015
r94 25 27 28.9857 $w=3.28e-07 $l=8.3e-07 $layer=LI1_cond $X=1.06 $Y=1.985
+ $X2=1.06 $Y2=2.815
r95 23 46 0.89609 $w=3.3e-07 $l=8.5e-08 $layer=LI1_cond $X=1.06 $Y=1.94 $X2=1.06
+ $Y2=1.855
r96 23 25 1.57151 $w=3.28e-07 $l=4.5e-08 $layer=LI1_cond $X=1.06 $Y=1.94
+ $X2=1.06 $Y2=1.985
r97 19 45 0.00168595 $w=2.5e-07 $l=8.5e-08 $layer=LI1_cond $X=0.8 $Y=0.93
+ $X2=0.8 $Y2=1.015
r98 19 21 19.1306 $w=2.48e-07 $l=4.15e-07 $layer=LI1_cond $X=0.8 $Y=0.93 $X2=0.8
+ $Y2=0.515
r99 18 44 1.93381 $w=1.7e-07 $l=1.15e-07 $layer=LI1_cond $X=0.355 $Y=1.855
+ $X2=0.24 $Y2=1.855
r100 17 46 8.61065 $w=1.7e-07 $l=1.65e-07 $layer=LI1_cond $X=0.895 $Y=1.855
+ $X2=1.06 $Y2=1.855
r101 17 18 35.2299 $w=1.68e-07 $l=5.4e-07 $layer=LI1_cond $X=0.895 $Y=1.855
+ $X2=0.355 $Y2=1.855
r102 15 45 7.02821 $w=1.7e-07 $l=1.25e-07 $layer=LI1_cond $X=0.675 $Y=1.015
+ $X2=0.8 $Y2=1.015
r103 15 16 24.7914 $w=1.68e-07 $l=3.8e-07 $layer=LI1_cond $X=0.675 $Y=1.015
+ $X2=0.295 $Y2=1.015
r104 14 44 4.50329 $w=2e-07 $l=9.88686e-08 $layer=LI1_cond $X=0.21 $Y=1.77
+ $X2=0.24 $Y2=1.855
r105 13 16 6.81649 $w=1.7e-07 $l=1.20208e-07 $layer=LI1_cond $X=0.21 $Y=1.1
+ $X2=0.295 $Y2=1.015
r106 13 14 43.7112 $w=1.68e-07 $l=6.7e-07 $layer=LI1_cond $X=0.21 $Y=1.1
+ $X2=0.21 $Y2=1.77
r107 4 41 400 $w=1.7e-07 $l=1.04732e-06 $layer=licon1_PDIFF $count=1 $X=1.81
+ $Y=1.84 $X2=1.96 $Y2=2.815
r108 4 39 400 $w=1.7e-07 $l=2.10357e-07 $layer=licon1_PDIFF $count=1 $X=1.81
+ $Y=1.84 $X2=1.96 $Y2=1.985
r109 3 27 400 $w=1.7e-07 $l=1.04732e-06 $layer=licon1_PDIFF $count=1 $X=0.91
+ $Y=1.84 $X2=1.06 $Y2=2.815
r110 3 25 400 $w=1.7e-07 $l=2.10357e-07 $layer=licon1_PDIFF $count=1 $X=0.91
+ $Y=1.84 $X2=1.06 $Y2=1.985
r111 2 35 91 $w=1.7e-07 $l=2.03286e-07 $layer=licon1_NDIFF $count=2 $X=1.63
+ $Y=0.37 $X2=1.77 $Y2=0.515
r112 1 21 91 $w=1.7e-07 $l=2.03286e-07 $layer=licon1_NDIFF $count=2 $X=0.7
+ $Y=0.37 $X2=0.84 $Y2=0.515
.ends

.subckt PM_SKY130_FD_SC_HS__O41A_4%A_762_368# 1 2 3 12 14 15 18 20 22 25 29
c54 14 0 1.65567e-19 $X=5.765 $Y=2.12
r55 20 31 3.0656 $w=3.3e-07 $l=1.5e-07 $layer=LI1_cond $X=7.705 $Y=2.12
+ $X2=7.705 $Y2=1.97
r56 20 22 9.7783 $w=3.28e-07 $l=2.8e-07 $layer=LI1_cond $X=7.705 $Y=2.12
+ $X2=7.705 $Y2=2.4
r57 19 27 3.40825 $w=1.7e-07 $l=1.12916e-07 $layer=LI1_cond $X=5.85 $Y=2.035
+ $X2=5.765 $Y2=1.97
r58 18 31 4.70058 $w=1.7e-07 $l=1.94808e-07 $layer=LI1_cond $X=7.54 $Y=2.035
+ $X2=7.705 $Y2=1.97
r59 18 19 110.257 $w=1.68e-07 $l=1.69e-06 $layer=LI1_cond $X=7.54 $Y=2.035
+ $X2=5.85 $Y2=2.035
r60 15 29 5.16603 $w=1.7e-07 $l=8.5e-08 $layer=LI1_cond $X=5.765 $Y=2.29
+ $X2=5.765 $Y2=2.375
r61 14 27 3.40825 $w=1.7e-07 $l=1.5e-07 $layer=LI1_cond $X=5.765 $Y=2.12
+ $X2=5.765 $Y2=1.97
r62 14 15 11.0909 $w=1.68e-07 $l=1.7e-07 $layer=LI1_cond $X=5.765 $Y=2.12
+ $X2=5.765 $Y2=2.29
r63 13 25 4.25188 $w=1.7e-07 $l=1.25e-07 $layer=LI1_cond $X=4.04 $Y=2.375
+ $X2=3.915 $Y2=2.375
r64 12 29 1.34256 $w=1.7e-07 $l=8.5e-08 $layer=LI1_cond $X=5.68 $Y=2.375
+ $X2=5.765 $Y2=2.375
r65 12 13 106.995 $w=1.68e-07 $l=1.64e-06 $layer=LI1_cond $X=5.68 $Y=2.375
+ $X2=4.04 $Y2=2.375
r66 3 31 600 $w=1.7e-07 $l=2.62678e-07 $layer=licon1_PDIFF $count=1 $X=7.505
+ $Y=1.84 $X2=7.705 $Y2=1.985
r67 3 22 300 $w=1.7e-07 $l=6.5238e-07 $layer=licon1_PDIFF $count=2 $X=7.505
+ $Y=1.84 $X2=7.705 $Y2=2.4
r68 2 29 300 $w=1.7e-07 $l=6.30555e-07 $layer=licon1_PDIFF $count=2 $X=5.615
+ $Y=1.84 $X2=5.765 $Y2=2.4
r69 2 27 600 $w=1.7e-07 $l=2.10357e-07 $layer=licon1_PDIFF $count=1 $X=5.615
+ $Y=1.84 $X2=5.765 $Y2=1.985
r70 1 25 300 $w=1.7e-07 $l=6.83667e-07 $layer=licon1_PDIFF $count=2 $X=3.81
+ $Y=1.84 $X2=3.955 $Y2=2.455
.ends

.subckt PM_SKY130_FD_SC_HS__O41A_4%A_851_368# 1 2 11
r14 8 11 29.9635 $w=3.48e-07 $l=9.1e-07 $layer=LI1_cond $X=4.405 $Y=2.805
+ $X2=5.315 $Y2=2.805
r15 2 11 600 $w=1.7e-07 $l=1.03729e-06 $layer=licon1_PDIFF $count=1 $X=5.165
+ $Y=1.84 $X2=5.315 $Y2=2.805
r16 1 8 600 $w=1.7e-07 $l=1.03729e-06 $layer=licon1_PDIFF $count=1 $X=4.255
+ $Y=1.84 $X2=4.405 $Y2=2.805
.ends

.subckt PM_SKY130_FD_SC_HS__O41A_4%A_1213_368# 1 2 9 14 16
r24 10 14 5.12568 $w=1.7e-07 $l=1.65e-07 $layer=LI1_cond $X=6.38 $Y=2.375
+ $X2=6.215 $Y2=2.375
r25 9 16 5.12568 $w=1.7e-07 $l=1.65e-07 $layer=LI1_cond $X=7.04 $Y=2.375
+ $X2=7.205 $Y2=2.375
r26 9 10 43.0588 $w=1.68e-07 $l=6.6e-07 $layer=LI1_cond $X=7.04 $Y=2.375
+ $X2=6.38 $Y2=2.375
r27 2 16 300 $w=1.7e-07 $l=7.07972e-07 $layer=licon1_PDIFF $count=2 $X=7.005
+ $Y=1.84 $X2=7.205 $Y2=2.455
r28 1 14 300 $w=1.7e-07 $l=6.85912e-07 $layer=licon1_PDIFF $count=2 $X=6.065
+ $Y=1.84 $X2=6.215 $Y2=2.455
.ends

.subckt PM_SKY130_FD_SC_HS__O41A_4%VGND 1 2 3 4 5 6 7 22 24 28 32 36 40 44 46 50
+ 53 54 56 57 58 59 60 62 67 87 88 94 97 100
c121 1 0 1.60655e-19 $X=0.195 $Y=0.37
r122 100 101 4.65 $w=1.7e-07 $l=3.4e-07 $layer=mcon $count=2 $X=6.96 $Y=0
+ $X2=6.96 $Y2=0
r123 97 98 9.3 $w=1.7e-07 $l=1.7e-07 $layer=mcon $count=1 $X=2.16 $Y=0 $X2=2.16
+ $Y2=0
r124 94 95 9.3 $w=1.7e-07 $l=1.7e-07 $layer=mcon $count=1 $X=1.2 $Y=0 $X2=1.2
+ $Y2=0
r125 91 92 9.3 $w=1.7e-07 $l=1.7e-07 $layer=mcon $count=1 $X=0.24 $Y=0 $X2=0.24
+ $Y2=0
r126 88 101 0.267585 $w=4.9e-07 $l=9.6e-07 $layer=MET1_cond $X=7.92 $Y=0
+ $X2=6.96 $Y2=0
r127 87 88 4.65 $w=1.7e-07 $l=3.4e-07 $layer=mcon $count=2 $X=7.92 $Y=0 $X2=7.92
+ $Y2=0
r128 85 100 7.02821 $w=1.7e-07 $l=1.25e-07 $layer=LI1_cond $X=7.135 $Y=0
+ $X2=7.01 $Y2=0
r129 85 87 51.2139 $w=1.68e-07 $l=7.85e-07 $layer=LI1_cond $X=7.135 $Y=0
+ $X2=7.92 $Y2=0
r130 84 101 0.267585 $w=4.9e-07 $l=9.6e-07 $layer=MET1_cond $X=6 $Y=0 $X2=6.96
+ $Y2=0
r131 83 84 4.65 $w=1.7e-07 $l=3.4e-07 $layer=mcon $count=2 $X=6 $Y=0 $X2=6 $Y2=0
r132 81 84 0.267585 $w=4.9e-07 $l=9.6e-07 $layer=MET1_cond $X=5.04 $Y=0 $X2=6
+ $Y2=0
r133 80 81 4.65 $w=1.7e-07 $l=3.4e-07 $layer=mcon $count=2 $X=5.04 $Y=0 $X2=5.04
+ $Y2=0
r134 75 98 0.133793 $w=4.9e-07 $l=4.8e-07 $layer=MET1_cond $X=2.64 $Y=0 $X2=2.16
+ $Y2=0
r135 74 77 93.9465 $w=1.68e-07 $l=1.44e-06 $layer=LI1_cond $X=2.64 $Y=0 $X2=4.08
+ $Y2=0
r136 74 75 4.65 $w=1.7e-07 $l=3.4e-07 $layer=mcon $count=2 $X=2.64 $Y=0 $X2=2.64
+ $Y2=0
r137 72 97 8.61065 $w=1.7e-07 $l=1.65e-07 $layer=LI1_cond $X=2.365 $Y=0 $X2=2.2
+ $Y2=0
r138 72 74 17.9412 $w=1.68e-07 $l=2.75e-07 $layer=LI1_cond $X=2.365 $Y=0
+ $X2=2.64 $Y2=0
r139 71 98 0.133793 $w=4.9e-07 $l=4.8e-07 $layer=MET1_cond $X=1.68 $Y=0 $X2=2.16
+ $Y2=0
r140 71 95 0.133793 $w=4.9e-07 $l=4.8e-07 $layer=MET1_cond $X=1.68 $Y=0 $X2=1.2
+ $Y2=0
r141 70 71 9.3 $w=1.7e-07 $l=1.7e-07 $layer=mcon $count=1 $X=1.68 $Y=0 $X2=1.68
+ $Y2=0
r142 68 94 8.61065 $w=1.7e-07 $l=1.65e-07 $layer=LI1_cond $X=1.435 $Y=0 $X2=1.27
+ $Y2=0
r143 68 70 15.984 $w=1.68e-07 $l=2.45e-07 $layer=LI1_cond $X=1.435 $Y=0 $X2=1.68
+ $Y2=0
r144 67 97 8.61065 $w=1.7e-07 $l=1.65e-07 $layer=LI1_cond $X=2.035 $Y=0 $X2=2.2
+ $Y2=0
r145 67 70 23.1604 $w=1.68e-07 $l=3.55e-07 $layer=LI1_cond $X=2.035 $Y=0
+ $X2=1.68 $Y2=0
r146 66 95 0.133793 $w=4.9e-07 $l=4.8e-07 $layer=MET1_cond $X=0.72 $Y=0 $X2=1.2
+ $Y2=0
r147 66 92 0.133793 $w=4.9e-07 $l=4.8e-07 $layer=MET1_cond $X=0.72 $Y=0 $X2=0.24
+ $Y2=0
r148 65 66 9.3 $w=1.7e-07 $l=1.7e-07 $layer=mcon $count=1 $X=0.72 $Y=0 $X2=0.72
+ $Y2=0
r149 63 91 4.61231 $w=1.7e-07 $l=2.53e-07 $layer=LI1_cond $X=0.505 $Y=0
+ $X2=0.252 $Y2=0
r150 63 65 14.0267 $w=1.68e-07 $l=2.15e-07 $layer=LI1_cond $X=0.505 $Y=0
+ $X2=0.72 $Y2=0
r151 62 94 8.61065 $w=1.7e-07 $l=1.65e-07 $layer=LI1_cond $X=1.105 $Y=0 $X2=1.27
+ $Y2=0
r152 62 65 25.1176 $w=1.68e-07 $l=3.85e-07 $layer=LI1_cond $X=1.105 $Y=0
+ $X2=0.72 $Y2=0
r153 60 81 0.267585 $w=4.9e-07 $l=9.6e-07 $layer=MET1_cond $X=4.08 $Y=0 $X2=5.04
+ $Y2=0
r154 60 75 0.401378 $w=4.9e-07 $l=1.44e-06 $layer=MET1_cond $X=4.08 $Y=0
+ $X2=2.64 $Y2=0
r155 60 77 4.65 $w=1.7e-07 $l=3.4e-07 $layer=mcon $count=2 $X=4.08 $Y=0 $X2=4.08
+ $Y2=0
r156 58 83 1.63102 $w=1.68e-07 $l=2.5e-08 $layer=LI1_cond $X=6.025 $Y=0 $X2=6
+ $Y2=0
r157 58 59 7.02821 $w=1.7e-07 $l=1.25e-07 $layer=LI1_cond $X=6.025 $Y=0 $X2=6.15
+ $Y2=0
r158 56 80 7.50267 $w=1.68e-07 $l=1.15e-07 $layer=LI1_cond $X=5.155 $Y=0
+ $X2=5.04 $Y2=0
r159 56 57 8.61065 $w=1.7e-07 $l=1.65e-07 $layer=LI1_cond $X=5.155 $Y=0 $X2=5.32
+ $Y2=0
r160 55 83 33.5989 $w=1.68e-07 $l=5.15e-07 $layer=LI1_cond $X=5.485 $Y=0 $X2=6
+ $Y2=0
r161 55 57 8.61065 $w=1.7e-07 $l=1.65e-07 $layer=LI1_cond $X=5.485 $Y=0 $X2=5.32
+ $Y2=0
r162 53 77 19.246 $w=1.68e-07 $l=2.95e-07 $layer=LI1_cond $X=4.375 $Y=0 $X2=4.08
+ $Y2=0
r163 53 54 5.16603 $w=1.7e-07 $l=8.5e-08 $layer=LI1_cond $X=4.375 $Y=0 $X2=4.46
+ $Y2=0
r164 52 80 32.2941 $w=1.68e-07 $l=4.95e-07 $layer=LI1_cond $X=4.545 $Y=0
+ $X2=5.04 $Y2=0
r165 52 54 5.16603 $w=1.7e-07 $l=8.5e-08 $layer=LI1_cond $X=4.545 $Y=0 $X2=4.46
+ $Y2=0
r166 48 100 0.00168595 $w=2.5e-07 $l=8.5e-08 $layer=LI1_cond $X=7.01 $Y=0.085
+ $X2=7.01 $Y2=0
r167 48 50 30.4245 $w=2.48e-07 $l=6.6e-07 $layer=LI1_cond $X=7.01 $Y=0.085
+ $X2=7.01 $Y2=0.745
r168 47 59 7.02821 $w=1.7e-07 $l=1.25e-07 $layer=LI1_cond $X=6.275 $Y=0 $X2=6.15
+ $Y2=0
r169 46 100 7.02821 $w=1.7e-07 $l=1.25e-07 $layer=LI1_cond $X=6.885 $Y=0
+ $X2=7.01 $Y2=0
r170 46 47 39.7968 $w=1.68e-07 $l=6.1e-07 $layer=LI1_cond $X=6.885 $Y=0
+ $X2=6.275 $Y2=0
r171 42 59 0.00168595 $w=2.5e-07 $l=8.5e-08 $layer=LI1_cond $X=6.15 $Y=0.085
+ $X2=6.15 $Y2=0
r172 42 44 30.4245 $w=2.48e-07 $l=6.6e-07 $layer=LI1_cond $X=6.15 $Y=0.085
+ $X2=6.15 $Y2=0.745
r173 38 57 0.89609 $w=3.3e-07 $l=8.5e-08 $layer=LI1_cond $X=5.32 $Y=0.085
+ $X2=5.32 $Y2=0
r174 38 40 23.0489 $w=3.28e-07 $l=6.6e-07 $layer=LI1_cond $X=5.32 $Y=0.085
+ $X2=5.32 $Y2=0.745
r175 34 54 1.34256 $w=1.7e-07 $l=8.5e-08 $layer=LI1_cond $X=4.46 $Y=0.085
+ $X2=4.46 $Y2=0
r176 34 36 43.385 $w=1.68e-07 $l=6.65e-07 $layer=LI1_cond $X=4.46 $Y=0.085
+ $X2=4.46 $Y2=0.75
r177 30 97 0.89609 $w=3.3e-07 $l=8.5e-08 $layer=LI1_cond $X=2.2 $Y=0.085 $X2=2.2
+ $Y2=0
r178 30 32 15.0167 $w=3.28e-07 $l=4.3e-07 $layer=LI1_cond $X=2.2 $Y=0.085
+ $X2=2.2 $Y2=0.515
r179 26 94 0.89609 $w=3.3e-07 $l=8.5e-08 $layer=LI1_cond $X=1.27 $Y=0.085
+ $X2=1.27 $Y2=0
r180 26 28 16.4136 $w=3.28e-07 $l=4.7e-07 $layer=LI1_cond $X=1.27 $Y=0.085
+ $X2=1.27 $Y2=0.555
r181 22 91 3.15387 $w=3.3e-07 $l=1.23386e-07 $layer=LI1_cond $X=0.34 $Y=0.085
+ $X2=0.252 $Y2=0
r182 22 24 16.4136 $w=3.28e-07 $l=4.7e-07 $layer=LI1_cond $X=0.34 $Y=0.085
+ $X2=0.34 $Y2=0.555