* File: sky130_fd_sc_hs__sdfbbn_2.pex.spice
* Created: Tue Sep  1 20:22:06 2020
* Program "Calibre xRC"
* Version "v2018.4_34.26"
* Nominal Temperature: 27C
* Circuit Temperature: 27C
* 
.subckt PM_SKY130_FD_SC_HS__SDFBBN_2%SCD 2 3 5 8 9 10 14 15 16
r29 18 19 96.8533 $w=1.7e-07 $l=2.55e-07 $layer=licon1_POLY $count=1 $X=0.385
+ $Y=1.97 $X2=0.385 $Y2=1.97
r30 14 16 45.1558 $w=3.75e-07 $l=1.65e-07 $layer=POLY_cond $X=0.407 $Y=1.29
+ $X2=0.407 $Y2=1.125
r31 14 15 96.8533 $w=1.7e-07 $l=2.55e-07 $layer=licon1_POLY $count=1 $X=0.385
+ $Y=1.29 $X2=0.385 $Y2=1.29
r32 10 19 8.27047 $w=4.23e-07 $l=3.05e-07 $layer=LI1_cond $X=0.337 $Y=1.665
+ $X2=0.337 $Y2=1.97
r33 9 10 10.033 $w=4.23e-07 $l=3.7e-07 $layer=LI1_cond $X=0.337 $Y=1.295
+ $X2=0.337 $Y2=1.665
r34 9 15 0.135582 $w=4.23e-07 $l=5e-09 $layer=LI1_cond $X=0.337 $Y=1.295
+ $X2=0.337 $Y2=1.29
r35 8 16 102.827 $w=1.5e-07 $l=3.2e-07 $layer=POLY_cond $X=0.52 $Y=0.805
+ $X2=0.52 $Y2=1.125
r36 3 18 56.1009 $w=3.02e-07 $l=3.20273e-07 $layer=POLY_cond $X=0.505 $Y=2.245
+ $X2=0.407 $Y2=1.97
r37 3 5 126.927 $w=1.5e-07 $l=3.95e-07 $layer=POLY_cond $X=0.505 $Y=2.245
+ $X2=0.505 $Y2=2.64
r38 2 18 4.79453 $w=3.75e-07 $l=2.2e-08 $layer=POLY_cond $X=0.407 $Y=1.948
+ $X2=0.407 $Y2=1.97
r39 1 14 3.26277 $w=3.75e-07 $l=2.2e-08 $layer=POLY_cond $X=0.407 $Y=1.312
+ $X2=0.407 $Y2=1.29
r40 1 2 94.3237 $w=3.75e-07 $l=6.36e-07 $layer=POLY_cond $X=0.407 $Y=1.312
+ $X2=0.407 $Y2=1.948
.ends

.subckt PM_SKY130_FD_SC_HS__SDFBBN_2%D 1 3 5 8 10 12 19
c59 12 0 1.16605e-19 $X=1.68 $Y=1.665
r60 17 19 15.7375 $w=3.3e-07 $l=9e-08 $layer=POLY_cond $X=1.65 $Y=1.625 $X2=1.74
+ $Y2=1.625
r61 14 17 40.2181 $w=3.3e-07 $l=2.3e-07 $layer=POLY_cond $X=1.42 $Y=1.625
+ $X2=1.65 $Y2=1.625
r62 12 17 145.28 $w=1.7e-07 $l=1.7e-07 $layer=licon1_POLY $count=1 $X=1.65
+ $Y=1.625 $X2=1.65 $Y2=1.625
r63 10 11 18.5385 $w=1.95e-07 $l=7.5e-08 $layer=POLY_cond $X=1.345 $Y=2.14
+ $X2=1.42 $Y2=2.14
r64 6 19 21.2229 $w=1.5e-07 $l=1.65e-07 $layer=POLY_cond $X=1.74 $Y=1.46
+ $X2=1.74 $Y2=1.625
r65 6 8 335.862 $w=1.5e-07 $l=6.55e-07 $layer=POLY_cond $X=1.74 $Y=1.46 $X2=1.74
+ $Y2=0.805
r66 5 11 8.99251 $w=1.5e-07 $l=1.05e-07 $layer=POLY_cond $X=1.42 $Y=2.035
+ $X2=1.42 $Y2=2.14
r67 4 14 21.2229 $w=1.5e-07 $l=1.65e-07 $layer=POLY_cond $X=1.42 $Y=1.79
+ $X2=1.42 $Y2=1.625
r68 4 5 125.628 $w=1.5e-07 $l=2.45e-07 $layer=POLY_cond $X=1.42 $Y=1.79 $X2=1.42
+ $Y2=2.035
r69 1 10 8.99251 $w=1.5e-07 $l=1.05e-07 $layer=POLY_cond $X=1.345 $Y=2.245
+ $X2=1.345 $Y2=2.14
r70 1 3 126.927 $w=1.5e-07 $l=3.95e-07 $layer=POLY_cond $X=1.345 $Y=2.245
+ $X2=1.345 $Y2=2.64
.ends

.subckt PM_SKY130_FD_SC_HS__SDFBBN_2%A_341_410# 1 2 7 9 10 11 14 17 18 20 21 24
+ 28 32 34
c82 34 0 2.50597e-19 $X=3.067 $Y=1.645
c83 28 0 1.21362e-19 $X=3.025 $Y=0.815
c84 24 0 3.52871e-20 $X=2.77 $Y=1.645
c85 21 0 3.06618e-19 $X=2.94 $Y=1.645
c86 11 0 1.16605e-19 $X=1.885 $Y=2.125
r87 30 34 6.41553 $w=2.52e-07 $l=1.66493e-07 $layer=LI1_cond $X=3.07 $Y=1.81
+ $X2=3.067 $Y2=1.645
r88 30 32 30.194 $w=2.48e-07 $l=6.55e-07 $layer=LI1_cond $X=3.07 $Y=1.81
+ $X2=3.07 $Y2=2.465
r89 26 34 6.41553 $w=2.52e-07 $l=1.65e-07 $layer=LI1_cond $X=3.067 $Y=1.48
+ $X2=3.067 $Y2=1.645
r90 26 28 30.0539 $w=2.53e-07 $l=6.65e-07 $layer=LI1_cond $X=3.067 $Y=1.48
+ $X2=3.067 $Y2=0.815
r91 24 37 15.7375 $w=3.3e-07 $l=9e-08 $layer=POLY_cond $X=2.77 $Y=1.645 $X2=2.77
+ $Y2=1.735
r92 23 24 145.28 $w=1.7e-07 $l=1.7e-07 $layer=licon1_POLY $count=1 $X=2.77
+ $Y=1.645 $X2=2.77 $Y2=1.645
r93 21 34 0.398883 $w=3.3e-07 $l=1.27e-07 $layer=LI1_cond $X=2.94 $Y=1.645
+ $X2=3.067 $Y2=1.645
r94 21 23 5.93683 $w=3.28e-07 $l=1.7e-07 $layer=LI1_cond $X=2.94 $Y=1.645
+ $X2=2.77 $Y2=1.645
r95 19 20 5.30422 $w=1.5e-07 $l=7.5e-08 $layer=POLY_cond $X=2.205 $Y=1.735
+ $X2=2.13 $Y2=1.735
r96 18 37 21.2229 $w=1.5e-07 $l=1.65e-07 $layer=POLY_cond $X=2.605 $Y=1.735
+ $X2=2.77 $Y2=1.735
r97 18 19 205.106 $w=1.5e-07 $l=4e-07 $layer=POLY_cond $X=2.605 $Y=1.735
+ $X2=2.205 $Y2=1.735
r98 16 20 20.4101 $w=1.5e-07 $l=7.5e-08 $layer=POLY_cond $X=2.13 $Y=1.81
+ $X2=2.13 $Y2=1.735
r99 16 17 123.064 $w=1.5e-07 $l=2.4e-07 $layer=POLY_cond $X=2.13 $Y=1.81
+ $X2=2.13 $Y2=2.05
r100 12 20 20.4101 $w=1.5e-07 $l=7.5e-08 $layer=POLY_cond $X=2.13 $Y=1.66
+ $X2=2.13 $Y2=1.735
r101 12 14 438.415 $w=1.5e-07 $l=8.55e-07 $layer=POLY_cond $X=2.13 $Y=1.66
+ $X2=2.13 $Y2=0.805
r102 10 17 26.9307 $w=1.5e-07 $l=1.06066e-07 $layer=POLY_cond $X=2.055 $Y=2.125
+ $X2=2.13 $Y2=2.05
r103 10 11 87.1702 $w=1.5e-07 $l=1.7e-07 $layer=POLY_cond $X=2.055 $Y=2.125
+ $X2=1.885 $Y2=2.125
r104 7 11 26.9307 $w=1.5e-07 $l=1.58745e-07 $layer=POLY_cond $X=1.795 $Y=2.245
+ $X2=1.885 $Y2=2.125
r105 7 9 126.927 $w=1.5e-07 $l=3.95e-07 $layer=POLY_cond $X=1.795 $Y=2.245
+ $X2=1.795 $Y2=2.64
r106 2 32 300 $w=1.7e-07 $l=2.10357e-07 $layer=licon1_PDIFF $count=2 $X=2.88
+ $Y=2.32 $X2=3.03 $Y2=2.465
r107 1 28 182 $w=1.7e-07 $l=2.81425e-07 $layer=licon1_NDIFF $count=1 $X=2.885
+ $Y=0.595 $X2=3.025 $Y2=0.815
.ends

.subckt PM_SKY130_FD_SC_HS__SDFBBN_2%SCE 4 6 7 9 10 11 12 14 18 19 20 21 22 24
+ 27 28 29 30 34 35
c104 21 0 3.4396e-19 $X=3.175 $Y=2.125
c105 19 0 1.53309e-19 $X=3.175 $Y=1.165
c106 7 0 2.32704e-19 $X=0.955 $Y=2.245
c107 4 0 1.01507e-19 $X=0.91 $Y=0.805
r108 34 35 72.64 $w=1.7e-07 $l=3.4e-07 $layer=licon1_POLY $count=2 $X=0.97
+ $Y=1.29 $X2=0.97 $Y2=1.29
r109 29 30 8.67743 $w=5.08e-07 $l=3.7e-07 $layer=LI1_cond $X=1.06 $Y=1.295
+ $X2=1.06 $Y2=1.665
r110 29 35 0.117263 $w=5.08e-07 $l=5e-09 $layer=LI1_cond $X=1.06 $Y=1.295
+ $X2=1.06 $Y2=1.29
r111 27 34 59.4528 $w=3.3e-07 $l=3.4e-07 $layer=POLY_cond $X=0.97 $Y=1.63
+ $X2=0.97 $Y2=1.29
r112 27 28 35.4289 $w=3.3e-07 $l=1.65e-07 $layer=POLY_cond $X=0.97 $Y=1.63
+ $X2=0.97 $Y2=1.795
r113 26 34 41.8716 $w=3.3e-07 $l=1.65e-07 $layer=POLY_cond $X=0.97 $Y=1.125
+ $X2=0.97 $Y2=1.29
r114 23 24 415.34 $w=1.5e-07 $l=8.1e-07 $layer=POLY_cond $X=3.25 $Y=1.24
+ $X2=3.25 $Y2=2.05
r115 21 24 26.9307 $w=1.5e-07 $l=1.06066e-07 $layer=POLY_cond $X=3.175 $Y=2.125
+ $X2=3.25 $Y2=2.05
r116 21 22 143.574 $w=1.5e-07 $l=2.8e-07 $layer=POLY_cond $X=3.175 $Y=2.125
+ $X2=2.895 $Y2=2.125
r117 19 23 26.9307 $w=1.5e-07 $l=1.06066e-07 $layer=POLY_cond $X=3.175 $Y=1.165
+ $X2=3.25 $Y2=1.24
r118 19 20 148.702 $w=1.5e-07 $l=2.9e-07 $layer=POLY_cond $X=3.175 $Y=1.165
+ $X2=2.885 $Y2=1.165
r119 16 20 26.9307 $w=1.5e-07 $l=1.06066e-07 $layer=POLY_cond $X=2.81 $Y=1.09
+ $X2=2.885 $Y2=1.165
r120 16 18 146.138 $w=1.5e-07 $l=2.85e-07 $layer=POLY_cond $X=2.81 $Y=1.09
+ $X2=2.81 $Y2=0.805
r121 15 18 282.021 $w=1.5e-07 $l=5.5e-07 $layer=POLY_cond $X=2.81 $Y=0.255
+ $X2=2.81 $Y2=0.805
r122 12 22 26.9307 $w=1.5e-07 $l=1.58745e-07 $layer=POLY_cond $X=2.805 $Y=2.245
+ $X2=2.895 $Y2=2.125
r123 12 14 126.927 $w=1.5e-07 $l=3.95e-07 $layer=POLY_cond $X=2.805 $Y=2.245
+ $X2=2.805 $Y2=2.64
r124 10 15 26.9307 $w=1.5e-07 $l=1.06066e-07 $layer=POLY_cond $X=2.735 $Y=0.18
+ $X2=2.81 $Y2=0.255
r125 10 11 897.34 $w=1.5e-07 $l=1.75e-06 $layer=POLY_cond $X=2.735 $Y=0.18
+ $X2=0.985 $Y2=0.18
r126 7 9 126.927 $w=1.5e-07 $l=3.95e-07 $layer=POLY_cond $X=0.955 $Y=2.245
+ $X2=0.955 $Y2=2.64
r127 6 7 36.0588 $w=1.8e-07 $l=9e-08 $layer=POLY_cond $X=0.955 $Y=2.155
+ $X2=0.955 $Y2=2.245
r128 6 28 139.935 $w=1.8e-07 $l=3.6e-07 $layer=POLY_cond $X=0.955 $Y=2.155
+ $X2=0.955 $Y2=1.795
r129 4 26 164.085 $w=1.5e-07 $l=3.2e-07 $layer=POLY_cond $X=0.91 $Y=0.805
+ $X2=0.91 $Y2=1.125
r130 1 11 26.9307 $w=1.5e-07 $l=1.06066e-07 $layer=POLY_cond $X=0.91 $Y=0.255
+ $X2=0.985 $Y2=0.18
r131 1 4 282.021 $w=1.5e-07 $l=5.5e-07 $layer=POLY_cond $X=0.91 $Y=0.255
+ $X2=0.91 $Y2=0.805
.ends

.subckt PM_SKY130_FD_SC_HS__SDFBBN_2%CLK_N 1 3 4 6 7 11
c40 11 0 4.09367e-20 $X=3.73 $Y=1.515
c41 4 0 1.21362e-19 $X=3.815 $Y=1.765
r42 10 11 145.28 $w=1.7e-07 $l=1.7e-07 $layer=licon1_POLY $count=1 $X=3.73
+ $Y=1.515 $X2=3.73 $Y2=1.515
r43 7 11 4.21625 $w=4.08e-07 $l=1.5e-07 $layer=LI1_cond $X=3.69 $Y=1.665
+ $X2=3.69 $Y2=1.515
r44 4 10 51.8789 $w=3.07e-07 $l=2.87228e-07 $layer=POLY_cond $X=3.815 $Y=1.765
+ $X2=3.735 $Y2=1.515
r45 4 6 204.047 $w=1.5e-07 $l=6.35e-07 $layer=POLY_cond $X=3.815 $Y=1.765
+ $X2=3.815 $Y2=2.4
r46 1 10 38.5336 $w=3.07e-07 $l=1.94808e-07 $layer=POLY_cond $X=3.8 $Y=1.35
+ $X2=3.735 $Y2=1.515
r47 1 3 157.453 $w=1.5e-07 $l=4.9e-07 $layer=POLY_cond $X=3.8 $Y=1.35 $X2=3.8
+ $Y2=0.86
.ends

.subckt PM_SKY130_FD_SC_HS__SDFBBN_2%A_1007_366# 1 2 3 10 12 14 15 16 17 19 22
+ 24 26 28 30 31 32 34 36 39 41 45 49 50 53 56 58 61 62 63 67
c198 53 0 3.62521e-20 $X=5.2 $Y=1.995
c199 49 0 1.46444e-19 $X=9.78 $Y=1.745
c200 22 0 8.54043e-20 $X=9.435 $Y=0.9
c201 15 0 8.01569e-20 $X=5.775 $Y=1.195
c202 10 0 1.26757e-20 $X=5.275 $Y=2.245
r203 65 67 1.92074 $w=3.28e-07 $l=5.5e-08 $layer=LI1_cond $X=9.07 $Y=2.21
+ $X2=9.07 $Y2=2.265
r204 63 65 6.11144 $w=3.28e-07 $l=1.75e-07 $layer=LI1_cond $X=9.07 $Y=2.035
+ $X2=9.07 $Y2=2.21
r205 60 61 8.63679 $w=3.28e-07 $l=1.7e-07 $layer=LI1_cond $X=8.077 $Y=0.945
+ $X2=8.077 $Y2=1.115
r206 58 59 14.878 $w=2.46e-07 $l=3e-07 $layer=LI1_cond $X=7.66 $Y=2.9 $X2=7.96
+ $Y2=2.9
r207 53 54 145.28 $w=1.7e-07 $l=1.7e-07 $layer=licon1_POLY $count=1 $X=5.2
+ $Y=1.995 $X2=5.2 $Y2=1.995
r208 50 71 9.74394 $w=3.71e-07 $l=7.5e-08 $layer=POLY_cond $X=9.78 $Y=1.812
+ $X2=9.855 $Y2=1.812
r209 50 69 44.8221 $w=3.71e-07 $l=3.45e-07 $layer=POLY_cond $X=9.78 $Y=1.812
+ $X2=9.435 $Y2=1.812
r210 49 50 145.28 $w=1.7e-07 $l=1.7e-07 $layer=licon1_POLY $count=1 $X=9.78
+ $Y=1.745 $X2=9.78 $Y2=1.745
r211 47 49 7.15912 $w=3.28e-07 $l=2.05e-07 $layer=LI1_cond $X=9.78 $Y=1.95
+ $X2=9.78 $Y2=1.745
r212 46 63 4.62375 $w=1.7e-07 $l=1.65e-07 $layer=LI1_cond $X=9.235 $Y=2.035
+ $X2=9.07 $Y2=2.035
r213 45 47 7.76618 $w=1.7e-07 $l=2.03101e-07 $layer=LI1_cond $X=9.615 $Y=2.035
+ $X2=9.78 $Y2=1.95
r214 45 46 24.7914 $w=1.68e-07 $l=3.8e-07 $layer=LI1_cond $X=9.615 $Y=2.035
+ $X2=9.235 $Y2=2.035
r215 42 62 1.34256 $w=1.7e-07 $l=8.5e-08 $layer=LI1_cond $X=8.045 $Y=2.21
+ $X2=7.96 $Y2=2.21
r216 41 65 4.62375 $w=1.7e-07 $l=1.65e-07 $layer=LI1_cond $X=8.905 $Y=2.21
+ $X2=9.07 $Y2=2.21
r217 41 42 56.107 $w=1.68e-07 $l=8.6e-07 $layer=LI1_cond $X=8.905 $Y=2.21
+ $X2=8.045 $Y2=2.21
r218 39 60 2.96841 $w=3.28e-07 $l=8.5e-08 $layer=LI1_cond $X=8.115 $Y=0.86
+ $X2=8.115 $Y2=0.945
r219 36 59 2.90119 $w=1.7e-07 $l=1.7e-07 $layer=LI1_cond $X=7.96 $Y=2.73
+ $X2=7.96 $Y2=2.9
r220 35 62 5.16603 $w=1.7e-07 $l=8.5e-08 $layer=LI1_cond $X=7.96 $Y=2.295
+ $X2=7.96 $Y2=2.21
r221 35 36 28.3797 $w=1.68e-07 $l=4.35e-07 $layer=LI1_cond $X=7.96 $Y=2.295
+ $X2=7.96 $Y2=2.73
r222 34 62 5.16603 $w=1.7e-07 $l=8.5e-08 $layer=LI1_cond $X=7.96 $Y=2.125
+ $X2=7.96 $Y2=2.21
r223 34 61 65.8931 $w=1.68e-07 $l=1.01e-06 $layer=LI1_cond $X=7.96 $Y=2.125
+ $X2=7.96 $Y2=1.115
r224 32 56 8.71323 $w=3.43e-07 $l=1.72e-07 $layer=LI1_cond $X=7.072 $Y=2.902
+ $X2=6.9 $Y2=2.902
r225 31 58 1.26986 $w=3.45e-07 $l=7.93725e-09 $layer=LI1_cond $X=7.653 $Y=2.902
+ $X2=7.66 $Y2=2.9
r226 31 32 19.4078 $w=3.43e-07 $l=5.81e-07 $layer=LI1_cond $X=7.653 $Y=2.902
+ $X2=7.072 $Y2=2.902
r227 30 56 87.7487 $w=1.68e-07 $l=1.345e-06 $layer=LI1_cond $X=5.555 $Y=2.99
+ $X2=6.9 $Y2=2.99
r228 28 30 6.81649 $w=1.7e-07 $l=1.20208e-07 $layer=LI1_cond $X=5.47 $Y=2.905
+ $X2=5.555 $Y2=2.99
r229 27 53 11.5986 $w=2.84e-07 $l=3.46627e-07 $layer=LI1_cond $X=5.47 $Y=2.18
+ $X2=5.2 $Y2=2.005
r230 27 28 47.2995 $w=1.68e-07 $l=7.25e-07 $layer=LI1_cond $X=5.47 $Y=2.18
+ $X2=5.47 $Y2=2.905
r231 24 71 24.032 $w=1.5e-07 $l=2.33e-07 $layer=POLY_cond $X=9.855 $Y=2.045
+ $X2=9.855 $Y2=1.812
r232 24 26 159.06 $w=1.5e-07 $l=4.95e-07 $layer=POLY_cond $X=9.855 $Y=2.045
+ $X2=9.855 $Y2=2.54
r233 20 69 24.032 $w=1.5e-07 $l=2.32e-07 $layer=POLY_cond $X=9.435 $Y=1.58
+ $X2=9.435 $Y2=1.812
r234 20 22 348.681 $w=1.5e-07 $l=6.8e-07 $layer=POLY_cond $X=9.435 $Y=1.58
+ $X2=9.435 $Y2=0.9
r235 17 19 91.58 $w=1.5e-07 $l=2.85e-07 $layer=POLY_cond $X=5.85 $Y=1.12
+ $X2=5.85 $Y2=0.835
r236 15 17 26.9307 $w=1.5e-07 $l=1.06066e-07 $layer=POLY_cond $X=5.775 $Y=1.195
+ $X2=5.85 $Y2=1.12
r237 15 16 215.362 $w=1.5e-07 $l=4.2e-07 $layer=POLY_cond $X=5.775 $Y=1.195
+ $X2=5.355 $Y2=1.195
r238 14 54 38.5562 $w=2.99e-07 $l=2.0106e-07 $layer=POLY_cond $X=5.28 $Y=1.83
+ $X2=5.2 $Y2=1.995
r239 13 16 26.9307 $w=1.5e-07 $l=1.06066e-07 $layer=POLY_cond $X=5.28 $Y=1.27
+ $X2=5.355 $Y2=1.195
r240 13 14 287.149 $w=1.5e-07 $l=5.6e-07 $layer=POLY_cond $X=5.28 $Y=1.27
+ $X2=5.28 $Y2=1.83
r241 10 54 52.2586 $w=2.99e-07 $l=2.85044e-07 $layer=POLY_cond $X=5.275 $Y=2.245
+ $X2=5.2 $Y2=1.995
r242 10 12 91.58 $w=1.5e-07 $l=2.85e-07 $layer=POLY_cond $X=5.275 $Y=2.245
+ $X2=5.275 $Y2=2.53
r243 3 67 300 $w=1.7e-07 $l=2.10357e-07 $layer=licon1_PDIFF $count=2 $X=8.92
+ $Y=2.12 $X2=9.07 $Y2=2.265
r244 2 58 300 $w=1.7e-07 $l=1.03049e-06 $layer=licon1_PDIFF $count=2 $X=6.92
+ $Y=2.12 $X2=7.66 $Y2=2.815
r245 1 39 182 $w=1.7e-07 $l=2.96859e-07 $layer=licon1_NDIFF $count=1 $X=7.975
+ $Y=0.625 $X2=8.115 $Y2=0.86
.ends

.subckt PM_SKY130_FD_SC_HS__SDFBBN_2%A_868_368# 1 2 8 9 11 14 17 18 20 23 27 33
+ 35 41 42 45 46 47 49 50 51 53 54 60 61 64 72 79
c210 79 0 1.26757e-20 $X=5.855 $Y=1.265
c211 72 0 1.62439e-20 $X=10.32 $Y=1.59
c212 64 0 1.15277e-19 $X=5.76 $Y=1.675
c213 54 0 1.27085e-19 $X=6.145 $Y=1.295
c214 53 0 6.70526e-20 $X=10.175 $Y=1.295
c215 49 0 9.35685e-20 $X=6.66 $Y=1.69
c216 23 0 1.08678e-19 $X=11.16 $Y=0.62
r217 73 87 5.5876 $w=3.28e-07 $l=1.6e-07 $layer=LI1_cond $X=10.32 $Y=1.59
+ $X2=10.32 $Y2=1.43
r218 72 75 40.6903 $w=3.3e-07 $l=1.65e-07 $layer=POLY_cond $X=10.32 $Y=1.59
+ $X2=10.32 $Y2=1.755
r219 72 73 145.28 $w=1.7e-07 $l=1.7e-07 $layer=licon1_POLY $count=1 $X=10.32
+ $Y=1.59 $X2=10.32 $Y2=1.59
r220 65 83 0.161011 $w=5.18e-07 $l=7e-09 $layer=LI1_cond $X=5.855 $Y=1.675
+ $X2=5.855 $Y2=1.682
r221 64 67 40.6903 $w=3.3e-07 $l=1.65e-07 $layer=POLY_cond $X=5.76 $Y=1.675
+ $X2=5.76 $Y2=1.84
r222 64 65 145.28 $w=1.7e-07 $l=1.7e-07 $layer=licon1_POLY $count=1 $X=5.76
+ $Y=1.675 $X2=5.76 $Y2=1.675
r223 61 87 4.71454 $w=3.28e-07 $l=1.35e-07 $layer=LI1_cond $X=10.32 $Y=1.295
+ $X2=10.32 $Y2=1.43
r224 60 61 9.3 $w=1.7e-07 $l=1.7e-07 $layer=mcon $count=1 $X=10.32 $Y=1.295
+ $X2=10.32 $Y2=1.295
r225 57 65 8.74057 $w=5.18e-07 $l=3.8e-07 $layer=LI1_cond $X=5.855 $Y=1.295
+ $X2=5.855 $Y2=1.675
r226 57 79 0.690045 $w=5.18e-07 $l=3e-08 $layer=LI1_cond $X=5.855 $Y=1.295
+ $X2=5.855 $Y2=1.265
r227 56 57 9.3 $w=1.7e-07 $l=1.7e-07 $layer=mcon $count=1 $X=6 $Y=1.295 $X2=6
+ $Y2=1.295
r228 54 56 0.115467 $w=2.3e-07 $l=1.45e-07 $layer=MET1_cond $X=6.145 $Y=1.295
+ $X2=6 $Y2=1.295
r229 53 60 0.115467 $w=2.3e-07 $l=1.45e-07 $layer=MET1_cond $X=10.175 $Y=1.295
+ $X2=10.32 $Y2=1.295
r230 53 54 4.98761 $w=1.4e-07 $l=4.03e-06 $layer=MET1_cond $X=10.175 $Y=1.295
+ $X2=6.145 $Y2=1.295
r231 50 69 46.2115 $w=3.3e-07 $l=1.65e-07 $layer=POLY_cond $X=6.66 $Y=1.69
+ $X2=6.66 $Y2=1.525
r232 49 51 5.76222 $w=3.28e-07 $l=1.65e-07 $layer=LI1_cond $X=6.66 $Y=1.69
+ $X2=6.495 $Y2=1.69
r233 49 50 145.28 $w=1.7e-07 $l=1.7e-07 $layer=licon1_POLY $count=1 $X=6.66
+ $Y=1.69 $X2=6.66 $Y2=1.69
r234 45 46 8.5712 $w=3.78e-07 $l=1.65e-07 $layer=LI1_cond $X=4.595 $Y=2.005
+ $X2=4.595 $Y2=1.84
r235 42 77 46.2115 $w=3.3e-07 $l=1.65e-07 $layer=POLY_cond $X=11.22 $Y=1.43
+ $X2=11.22 $Y2=1.265
r236 41 42 145.28 $w=1.7e-07 $l=1.7e-07 $layer=licon1_POLY $count=1 $X=11.22
+ $Y=1.43 $X2=11.22 $Y2=1.43
r237 39 87 1.29116 $w=3e-07 $l=1.65e-07 $layer=LI1_cond $X=10.485 $Y=1.43
+ $X2=10.32 $Y2=1.43
r238 39 41 28.2349 $w=2.98e-07 $l=7.35e-07 $layer=LI1_cond $X=10.485 $Y=1.43
+ $X2=11.22 $Y2=1.43
r239 38 83 3.68146 $w=3.15e-07 $l=2.6e-07 $layer=LI1_cond $X=6.115 $Y=1.682
+ $X2=5.855 $Y2=1.682
r240 38 51 13.9025 $w=3.13e-07 $l=3.8e-07 $layer=LI1_cond $X=6.115 $Y=1.682
+ $X2=6.495 $Y2=1.682
r241 36 47 2.11342 $w=1.7e-07 $l=1.63e-07 $layer=LI1_cond $X=4.94 $Y=1.265
+ $X2=4.777 $Y2=1.265
r242 35 79 7.40362 $w=1.7e-07 $l=2.6e-07 $layer=LI1_cond $X=5.595 $Y=1.265
+ $X2=5.855 $Y2=1.265
r243 35 36 42.7326 $w=1.68e-07 $l=6.55e-07 $layer=LI1_cond $X=5.595 $Y=1.265
+ $X2=4.94 $Y2=1.265
r244 31 47 4.3182 $w=2.1e-07 $l=1.0225e-07 $layer=LI1_cond $X=4.815 $Y=1.18
+ $X2=4.777 $Y2=1.265
r245 31 33 19.361 $w=2.48e-07 $l=4.2e-07 $layer=LI1_cond $X=4.815 $Y=1.18
+ $X2=4.815 $Y2=0.76
r246 29 47 4.3182 $w=2.1e-07 $l=1.17346e-07 $layer=LI1_cond $X=4.7 $Y=1.35
+ $X2=4.777 $Y2=1.265
r247 29 46 31.9679 $w=1.68e-07 $l=4.9e-07 $layer=LI1_cond $X=4.7 $Y=1.35 $X2=4.7
+ $Y2=1.84
r248 25 45 0.758186 $w=3.78e-07 $l=2.5e-08 $layer=LI1_cond $X=4.595 $Y=2.03
+ $X2=4.595 $Y2=2.005
r249 25 27 23.807 $w=3.78e-07 $l=7.85e-07 $layer=LI1_cond $X=4.595 $Y=2.03
+ $X2=4.595 $Y2=2.815
r250 23 77 330.734 $w=1.5e-07 $l=6.45e-07 $layer=POLY_cond $X=11.16 $Y=0.62
+ $X2=11.16 $Y2=1.265
r251 18 20 159.06 $w=1.5e-07 $l=4.95e-07 $layer=POLY_cond $X=10.245 $Y=2.045
+ $X2=10.245 $Y2=2.54
r252 17 18 36.0588 $w=1.8e-07 $l=9e-08 $layer=POLY_cond $X=10.245 $Y=1.955
+ $X2=10.245 $Y2=2.045
r253 17 75 77.7419 $w=1.8e-07 $l=2e-07 $layer=POLY_cond $X=10.245 $Y=1.955
+ $X2=10.245 $Y2=1.755
r254 14 69 353.809 $w=1.5e-07 $l=6.9e-07 $layer=POLY_cond $X=6.665 $Y=0.835
+ $X2=6.665 $Y2=1.525
r255 9 11 91.58 $w=1.5e-07 $l=2.85e-07 $layer=POLY_cond $X=5.695 $Y=2.245
+ $X2=5.695 $Y2=2.53
r256 8 9 36.0588 $w=1.8e-07 $l=9e-08 $layer=POLY_cond $X=5.695 $Y=2.155
+ $X2=5.695 $Y2=2.245
r257 8 67 122.444 $w=1.8e-07 $l=3.15e-07 $layer=POLY_cond $X=5.695 $Y=2.155
+ $X2=5.695 $Y2=1.84
r258 2 45 400 $w=1.7e-07 $l=2.2798e-07 $layer=licon1_PDIFF $count=1 $X=4.34
+ $Y=1.84 $X2=4.49 $Y2=2.005
r259 2 27 400 $w=1.7e-07 $l=1.04732e-06 $layer=licon1_PDIFF $count=1 $X=4.34
+ $Y=1.84 $X2=4.49 $Y2=2.815
r260 1 33 91 $w=1.7e-07 $l=3.32716e-07 $layer=licon1_NDIFF $count=2 $X=4.715
+ $Y=0.49 $X2=4.855 $Y2=0.76
.ends

.subckt PM_SKY130_FD_SC_HS__SDFBBN_2%A_1154_464# 1 2 7 8 10 11 13 14 16 18 21 23
+ 24 27 29 30 34 35
c102 30 0 8.01569e-20 $X=6.615 $Y=1.27
c103 27 0 1.27085e-19 $X=6.45 $Y=0.835
c104 8 0 6.70526e-20 $X=7.365 $Y=1.36
r105 34 35 72.64 $w=1.7e-07 $l=3.4e-07 $layer=licon1_POLY $count=2 $X=7.2
+ $Y=1.45 $X2=7.2 $Y2=1.45
r106 32 34 20.6043 $w=3.28e-07 $l=5.9e-07 $layer=LI1_cond $X=7.2 $Y=2.04 $X2=7.2
+ $Y2=1.45
r107 31 34 3.31764 $w=3.28e-07 $l=9.5e-08 $layer=LI1_cond $X=7.2 $Y=1.355
+ $X2=7.2 $Y2=1.45
r108 29 31 7.76618 $w=1.7e-07 $l=2.03101e-07 $layer=LI1_cond $X=7.035 $Y=1.27
+ $X2=7.2 $Y2=1.355
r109 29 30 27.4011 $w=1.68e-07 $l=4.2e-07 $layer=LI1_cond $X=7.035 $Y=1.27
+ $X2=6.615 $Y2=1.27
r110 25 30 7.76618 $w=1.7e-07 $l=2.03101e-07 $layer=LI1_cond $X=6.45 $Y=1.185
+ $X2=6.615 $Y2=1.27
r111 25 27 12.2229 $w=3.28e-07 $l=3.5e-07 $layer=LI1_cond $X=6.45 $Y=1.185
+ $X2=6.45 $Y2=0.835
r112 23 32 7.76618 $w=1.7e-07 $l=2.03101e-07 $layer=LI1_cond $X=7.035 $Y=2.125
+ $X2=7.2 $Y2=2.04
r113 23 24 56.4332 $w=1.68e-07 $l=8.65e-07 $layer=LI1_cond $X=7.035 $Y=2.125
+ $X2=6.17 $Y2=2.125
r114 19 24 7.76618 $w=1.7e-07 $l=2.03101e-07 $layer=LI1_cond $X=6.005 $Y=2.21
+ $X2=6.17 $Y2=2.125
r115 19 21 10.6514 $w=3.28e-07 $l=3.05e-07 $layer=LI1_cond $X=6.005 $Y=2.21
+ $X2=6.005 $Y2=2.515
r116 17 35 2.62292 $w=3.3e-07 $l=1.5e-08 $layer=POLY_cond $X=7.2 $Y=1.435
+ $X2=7.2 $Y2=1.45
r117 14 18 18.8402 $w=1.65e-07 $l=8.21584e-08 $layer=POLY_cond $X=7.9 $Y=1.285
+ $X2=7.885 $Y2=1.36
r118 14 16 123.713 $w=1.5e-07 $l=3.85e-07 $layer=POLY_cond $X=7.9 $Y=1.285
+ $X2=7.9 $Y2=0.9
r119 11 13 159.06 $w=1.5e-07 $l=4.95e-07 $layer=POLY_cond $X=7.885 $Y=2.045
+ $X2=7.885 $Y2=2.54
r120 10 11 36.0588 $w=1.8e-07 $l=9e-08 $layer=POLY_cond $X=7.885 $Y=1.955
+ $X2=7.885 $Y2=2.045
r121 9 18 18.8402 $w=1.65e-07 $l=7.5e-08 $layer=POLY_cond $X=7.885 $Y=1.435
+ $X2=7.885 $Y2=1.36
r122 9 10 202.129 $w=1.8e-07 $l=5.2e-07 $layer=POLY_cond $X=7.885 $Y=1.435
+ $X2=7.885 $Y2=1.955
r123 8 17 32.1775 $w=1.5e-07 $l=1.98997e-07 $layer=POLY_cond $X=7.365 $Y=1.36
+ $X2=7.2 $Y2=1.435
r124 7 18 6.66866 $w=1.5e-07 $l=9e-08 $layer=POLY_cond $X=7.795 $Y=1.36
+ $X2=7.885 $Y2=1.36
r125 7 8 220.489 $w=1.5e-07 $l=4.3e-07 $layer=POLY_cond $X=7.795 $Y=1.36
+ $X2=7.365 $Y2=1.36
r126 2 21 600 $w=1.7e-07 $l=3.17884e-07 $layer=licon1_PDIFF $count=1 $X=5.77
+ $Y=2.32 $X2=6.005 $Y2=2.515
r127 1 27 182 $w=1.7e-07 $l=2.80624e-07 $layer=licon1_NDIFF $count=1 $X=6.285
+ $Y=0.625 $X2=6.45 $Y2=0.835
.ends

.subckt PM_SKY130_FD_SC_HS__SDFBBN_2%A_1643_257# 1 2 7 9 12 14 17 18 20 22 23 26
+ 29 30 31 33 34 35 36 40 43 46 50 51 52 56 57 60 62 66 70
c205 70 0 1.11129e-19 $X=12.66 $Y=1.22
c206 57 0 1.91513e-19 $X=12.66 $Y=1.13
c207 56 0 1.28025e-19 $X=12.66 $Y=1.215
c208 31 0 7.74904e-20 $X=9.725 $Y=0.345
r209 63 66 7.68295 $w=3.28e-07 $l=2.2e-07 $layer=LI1_cond $X=13.69 $Y=2.17
+ $X2=13.91 $Y2=2.17
r210 60 71 40.6903 $w=3.3e-07 $l=1.65e-07 $layer=POLY_cond $X=12.66 $Y=1.385
+ $X2=12.66 $Y2=1.55
r211 60 70 46.2115 $w=3.3e-07 $l=1.65e-07 $layer=POLY_cond $X=12.66 $Y=1.385
+ $X2=12.66 $Y2=1.22
r212 59 60 145.28 $w=1.7e-07 $l=1.7e-07 $layer=licon1_POLY $count=1 $X=12.66
+ $Y=1.385 $X2=12.66 $Y2=1.385
r213 56 59 5.93683 $w=3.28e-07 $l=1.7e-07 $layer=LI1_cond $X=12.66 $Y=1.215
+ $X2=12.66 $Y2=1.385
r214 56 57 5.66838 $w=3.28e-07 $l=8.5e-08 $layer=LI1_cond $X=12.66 $Y=1.215
+ $X2=12.66 $Y2=1.13
r215 52 54 11.0909 $w=1.68e-07 $l=1.7e-07 $layer=LI1_cond $X=11.98 $Y=0.685
+ $X2=11.98 $Y2=0.855
r216 50 51 72.64 $w=1.7e-07 $l=3.4e-07 $layer=licon1_POLY $count=2 $X=8.38
+ $Y=1.45 $X2=8.38 $Y2=1.45
r217 44 62 3.70735 $w=2.5e-07 $l=8.5e-08 $layer=LI1_cond $X=13.775 $Y=1.17
+ $X2=13.69 $Y2=1.17
r218 44 46 7.33373 $w=3.28e-07 $l=2.1e-07 $layer=LI1_cond $X=13.775 $Y=1.17
+ $X2=13.985 $Y2=1.17
r219 43 63 4.62375 $w=1.7e-07 $l=1.65e-07 $layer=LI1_cond $X=13.69 $Y=2.005
+ $X2=13.69 $Y2=2.17
r220 42 62 2.76166 $w=1.7e-07 $l=1.65e-07 $layer=LI1_cond $X=13.69 $Y=1.335
+ $X2=13.69 $Y2=1.17
r221 42 43 43.7112 $w=1.68e-07 $l=6.7e-07 $layer=LI1_cond $X=13.69 $Y=1.335
+ $X2=13.69 $Y2=2.005
r222 41 56 4.62375 $w=1.7e-07 $l=1.65e-07 $layer=LI1_cond $X=12.825 $Y=1.215
+ $X2=12.66 $Y2=1.215
r223 40 62 3.70735 $w=2.5e-07 $l=1.05119e-07 $layer=LI1_cond $X=13.605 $Y=1.215
+ $X2=13.69 $Y2=1.17
r224 40 41 50.8877 $w=1.68e-07 $l=7.8e-07 $layer=LI1_cond $X=13.605 $Y=1.215
+ $X2=12.825 $Y2=1.215
r225 38 57 12.3957 $w=1.68e-07 $l=1.9e-07 $layer=LI1_cond $X=12.58 $Y=0.94
+ $X2=12.58 $Y2=1.13
r226 37 54 0.716491 $w=1.7e-07 $l=8.5e-08 $layer=LI1_cond $X=12.065 $Y=0.855
+ $X2=11.98 $Y2=0.855
r227 36 38 6.81649 $w=1.7e-07 $l=1.20208e-07 $layer=LI1_cond $X=12.495 $Y=0.855
+ $X2=12.58 $Y2=0.94
r228 36 37 28.0535 $w=1.68e-07 $l=4.3e-07 $layer=LI1_cond $X=12.495 $Y=0.855
+ $X2=12.065 $Y2=0.855
r229 34 52 0.716491 $w=1.7e-07 $l=8.5e-08 $layer=LI1_cond $X=11.895 $Y=0.685
+ $X2=11.98 $Y2=0.685
r230 34 35 25.1176 $w=1.68e-07 $l=3.85e-07 $layer=LI1_cond $X=11.895 $Y=0.685
+ $X2=11.51 $Y2=0.685
r231 33 35 6.81649 $w=1.7e-07 $l=1.20208e-07 $layer=LI1_cond $X=11.425 $Y=0.6
+ $X2=11.51 $Y2=0.685
r232 32 33 11.0909 $w=1.68e-07 $l=1.7e-07 $layer=LI1_cond $X=11.425 $Y=0.43
+ $X2=11.425 $Y2=0.6
r233 30 32 6.81649 $w=1.7e-07 $l=1.20208e-07 $layer=LI1_cond $X=11.34 $Y=0.345
+ $X2=11.425 $Y2=0.43
r234 30 31 105.364 $w=1.68e-07 $l=1.615e-06 $layer=LI1_cond $X=11.34 $Y=0.345
+ $X2=9.725 $Y2=0.345
r235 28 31 6.81649 $w=1.7e-07 $l=1.20208e-07 $layer=LI1_cond $X=9.64 $Y=0.43
+ $X2=9.725 $Y2=0.345
r236 28 29 44.3636 $w=1.68e-07 $l=6.8e-07 $layer=LI1_cond $X=9.64 $Y=0.43
+ $X2=9.64 $Y2=1.11
r237 27 50 10.5458 $w=2.95e-07 $l=3.41746e-07 $layer=LI1_cond $X=8.62 $Y=1.195
+ $X2=8.417 $Y2=1.45
r238 26 29 6.81649 $w=1.7e-07 $l=1.20208e-07 $layer=LI1_cond $X=9.555 $Y=1.195
+ $X2=9.64 $Y2=1.11
r239 26 27 61 $w=1.68e-07 $l=9.35e-07 $layer=LI1_cond $X=9.555 $Y=1.195 $X2=8.62
+ $Y2=1.195
r240 23 51 59.4528 $w=3.3e-07 $l=3.4e-07 $layer=POLY_cond $X=8.38 $Y=1.79
+ $X2=8.38 $Y2=1.45
r241 22 51 40.8701 $w=3.3e-07 $l=1.65e-07 $layer=POLY_cond $X=8.38 $Y=1.285
+ $X2=8.38 $Y2=1.45
r242 18 20 184.767 $w=1.5e-07 $l=5.75e-07 $layer=POLY_cond $X=12.705 $Y=1.885
+ $X2=12.705 $Y2=2.46
r243 17 70 154.24 $w=1.5e-07 $l=4.8e-07 $layer=POLY_cond $X=12.705 $Y=0.74
+ $X2=12.705 $Y2=1.22
r244 14 18 36.0588 $w=1.8e-07 $l=9e-08 $layer=POLY_cond $X=12.705 $Y=1.795
+ $X2=12.705 $Y2=1.885
r245 14 71 95.2339 $w=1.8e-07 $l=2.45e-07 $layer=POLY_cond $X=12.705 $Y=1.795
+ $X2=12.705 $Y2=1.55
r246 12 22 123.713 $w=1.5e-07 $l=3.85e-07 $layer=POLY_cond $X=8.33 $Y=0.9
+ $X2=8.33 $Y2=1.285
r247 7 23 44.3718 $w=2.77e-07 $l=2.90086e-07 $layer=POLY_cond $X=8.305 $Y=2.045
+ $X2=8.38 $Y2=1.79
r248 7 9 159.06 $w=1.5e-07 $l=4.95e-07 $layer=POLY_cond $X=8.305 $Y=2.045
+ $X2=8.305 $Y2=2.54
r249 2 66 600 $w=1.7e-07 $l=2.36643e-07 $layer=licon1_PDIFF $count=1 $X=13.765
+ $Y=1.995 $X2=13.91 $Y2=2.17
r250 1 46 182 $w=1.7e-07 $l=3.32716e-07 $layer=licon1_NDIFF $count=1 $X=13.845
+ $Y=0.9 $X2=13.985 $Y2=1.17
.ends

.subckt PM_SKY130_FD_SC_HS__SDFBBN_2%SET_B 2 3 5 8 11 14 15 17 18 19 22 24 27 32
+ 33 34
c140 34 0 1.96837e-19 $X=12.12 $Y=1.22
c141 33 0 1.11129e-19 $X=12.12 $Y=1.385
c142 27 0 1.46444e-19 $X=8.955 $Y=1.615
c143 18 0 1.44347e-19 $X=12.095 $Y=1.665
r144 33 43 8.72119 $w=3.68e-07 $l=2.8e-07 $layer=LI1_cond $X=12.14 $Y=1.385
+ $X2=12.14 $Y2=1.665
r145 32 35 40.6903 $w=3.3e-07 $l=1.65e-07 $layer=POLY_cond $X=12.12 $Y=1.385
+ $X2=12.12 $Y2=1.55
r146 32 34 46.2115 $w=3.3e-07 $l=1.65e-07 $layer=POLY_cond $X=12.12 $Y=1.385
+ $X2=12.12 $Y2=1.22
r147 32 33 145.28 $w=1.7e-07 $l=1.7e-07 $layer=licon1_POLY $count=1 $X=12.12
+ $Y=1.385 $X2=12.12 $Y2=1.385
r148 27 30 40.9207 $w=3.65e-07 $l=1.65e-07 $layer=POLY_cond $X=8.937 $Y=1.615
+ $X2=8.937 $Y2=1.78
r149 27 29 46.6671 $w=3.65e-07 $l=1.65e-07 $layer=POLY_cond $X=8.937 $Y=1.615
+ $X2=8.937 $Y2=1.45
r150 27 28 145.28 $w=1.7e-07 $l=1.7e-07 $layer=licon1_POLY $count=1 $X=8.955
+ $Y=1.615 $X2=8.955 $Y2=1.615
r151 24 43 9.3 $w=1.7e-07 $l=1.7e-07 $layer=mcon $count=1 $X=12.24 $Y=1.665
+ $X2=12.24 $Y2=1.665
r152 22 28 14.1436 $w=3.28e-07 $l=4.05e-07 $layer=LI1_cond $X=9.36 $Y=1.615
+ $X2=8.955 $Y2=1.615
r153 21 22 9.3 $w=1.7e-07 $l=1.7e-07 $layer=mcon $count=1 $X=9.36 $Y=1.665
+ $X2=9.36 $Y2=1.665
r154 19 21 0.115467 $w=2.3e-07 $l=1.45e-07 $layer=MET1_cond $X=9.505 $Y=1.665
+ $X2=9.36 $Y2=1.665
r155 18 24 0.115467 $w=2.3e-07 $l=1.45e-07 $layer=MET1_cond $X=12.095 $Y=1.665
+ $X2=12.24 $Y2=1.665
r156 18 19 3.20544 $w=1.4e-07 $l=2.59e-06 $layer=MET1_cond $X=12.095 $Y=1.665
+ $X2=9.505 $Y2=1.665
r157 15 17 184.767 $w=1.5e-07 $l=5.75e-07 $layer=POLY_cond $X=12.195 $Y=1.885
+ $X2=12.195 $Y2=2.46
r158 14 34 154.24 $w=1.5e-07 $l=4.8e-07 $layer=POLY_cond $X=12.185 $Y=0.74
+ $X2=12.185 $Y2=1.22
r159 11 15 36.0588 $w=1.8e-07 $l=9e-08 $layer=POLY_cond $X=12.195 $Y=1.795
+ $X2=12.195 $Y2=1.885
r160 11 35 95.2339 $w=1.8e-07 $l=2.45e-07 $layer=POLY_cond $X=12.195 $Y=1.795
+ $X2=12.195 $Y2=1.55
r161 8 29 282.021 $w=1.5e-07 $l=5.5e-07 $layer=POLY_cond $X=8.935 $Y=0.9
+ $X2=8.935 $Y2=1.45
r162 3 5 159.06 $w=1.5e-07 $l=4.95e-07 $layer=POLY_cond $X=8.845 $Y=2.045
+ $X2=8.845 $Y2=2.54
r163 2 3 36.0588 $w=1.8e-07 $l=9e-08 $layer=POLY_cond $X=8.845 $Y=1.955
+ $X2=8.845 $Y2=2.045
r164 2 30 68.0242 $w=1.8e-07 $l=1.75e-07 $layer=POLY_cond $X=8.845 $Y=1.955
+ $X2=8.845 $Y2=1.78
.ends

.subckt PM_SKY130_FD_SC_HS__SDFBBN_2%A_688_98# 1 2 7 9 13 14 15 19 22 23 28 29
+ 30 31 32 35 37 38 40 41 42 46 48 50 55 59 60 61
c181 60 0 1.36467e-19 $X=4.28 $Y=1.505
c182 31 0 1.21918e-19 $X=10.78 $Y=2.085
c183 19 0 9.35685e-20 $X=6.21 $Y=0.835
c184 7 0 4.09367e-20 $X=4.265 $Y=1.765
r185 60 65 48.4693 $w=3.58e-07 $l=3.6e-07 $layer=POLY_cond $X=4.28 $Y=1.552
+ $X2=4.64 $Y2=1.552
r186 60 63 2.01955 $w=3.58e-07 $l=1.5e-08 $layer=POLY_cond $X=4.28 $Y=1.552
+ $X2=4.265 $Y2=1.552
r187 59 62 8.5712 $w=3.78e-07 $l=1.65e-07 $layer=LI1_cond $X=4.255 $Y=1.505
+ $X2=4.255 $Y2=1.67
r188 59 61 8.5712 $w=3.78e-07 $l=1.65e-07 $layer=LI1_cond $X=4.255 $Y=1.505
+ $X2=4.255 $Y2=1.34
r189 59 60 145.28 $w=1.7e-07 $l=1.7e-07 $layer=licon1_POLY $count=1 $X=4.28
+ $Y=1.505 $X2=4.28 $Y2=1.505
r190 55 62 18.2674 $w=1.68e-07 $l=2.8e-07 $layer=LI1_cond $X=4.15 $Y=1.95
+ $X2=4.15 $Y2=1.67
r191 52 61 11.0909 $w=1.68e-07 $l=1.7e-07 $layer=LI1_cond $X=4.15 $Y=1.17
+ $X2=4.15 $Y2=1.34
r192 51 57 4.25188 $w=1.7e-07 $l=1.25e-07 $layer=LI1_cond $X=3.675 $Y=2.035
+ $X2=3.55 $Y2=2.035
r193 50 55 6.81649 $w=1.7e-07 $l=1.20208e-07 $layer=LI1_cond $X=4.065 $Y=2.035
+ $X2=4.15 $Y2=1.95
r194 50 51 25.4438 $w=1.68e-07 $l=3.9e-07 $layer=LI1_cond $X=4.065 $Y=2.035
+ $X2=3.675 $Y2=2.035
r195 46 57 2.89128 $w=2.5e-07 $l=8.5e-08 $layer=LI1_cond $X=3.55 $Y=2.12
+ $X2=3.55 $Y2=2.035
r196 46 48 32.0379 $w=2.48e-07 $l=6.95e-07 $layer=LI1_cond $X=3.55 $Y=2.12
+ $X2=3.55 $Y2=2.815
r197 42 52 6.81649 $w=1.7e-07 $l=1.20208e-07 $layer=LI1_cond $X=4.065 $Y=1.085
+ $X2=4.15 $Y2=1.17
r198 42 44 31.3155 $w=1.68e-07 $l=4.8e-07 $layer=LI1_cond $X=4.065 $Y=1.085
+ $X2=3.585 $Y2=1.085
r199 39 40 55.4135 $w=1.85e-07 $l=1.5e-07 $layer=POLY_cond $X=6.227 $Y=2.095
+ $X2=6.227 $Y2=2.245
r200 35 37 91.58 $w=1.5e-07 $l=2.85e-07 $layer=POLY_cond $X=10.78 $Y=2.465
+ $X2=10.78 $Y2=2.75
r201 33 41 415.34 $w=1.5e-07 $l=8.1e-07 $layer=POLY_cond $X=10.77 $Y=1.185
+ $X2=10.77 $Y2=1.995
r202 32 35 36.0588 $w=1.8e-07 $l=9e-08 $layer=POLY_cond $X=10.78 $Y=2.375
+ $X2=10.78 $Y2=2.465
r203 31 41 36.5962 $w=1.8e-07 $l=9e-08 $layer=POLY_cond $X=10.78 $Y=2.085
+ $X2=10.78 $Y2=1.995
r204 31 32 112.726 $w=1.8e-07 $l=2.9e-07 $layer=POLY_cond $X=10.78 $Y=2.085
+ $X2=10.78 $Y2=2.375
r205 29 33 26.9307 $w=1.5e-07 $l=1.06066e-07 $layer=POLY_cond $X=10.695 $Y=1.11
+ $X2=10.77 $Y2=1.185
r206 29 30 364.064 $w=1.5e-07 $l=7.1e-07 $layer=POLY_cond $X=10.695 $Y=1.11
+ $X2=9.985 $Y2=1.11
r207 26 30 26.9307 $w=1.5e-07 $l=1.06066e-07 $layer=POLY_cond $X=9.91 $Y=1.035
+ $X2=9.985 $Y2=1.11
r208 26 28 179.468 $w=1.5e-07 $l=3.5e-07 $layer=POLY_cond $X=9.91 $Y=1.035
+ $X2=9.91 $Y2=0.685
r209 25 28 220.489 $w=1.5e-07 $l=4.3e-07 $layer=POLY_cond $X=9.91 $Y=0.255
+ $X2=9.91 $Y2=0.685
r210 24 38 20.4101 $w=1.5e-07 $l=7.5e-08 $layer=POLY_cond $X=6.285 $Y=0.18
+ $X2=6.21 $Y2=0.18
r211 23 25 26.9307 $w=1.5e-07 $l=1.06066e-07 $layer=POLY_cond $X=9.835 $Y=0.18
+ $X2=9.91 $Y2=0.255
r212 23 24 1820.32 $w=1.5e-07 $l=3.55e-06 $layer=POLY_cond $X=9.835 $Y=0.18
+ $X2=6.285 $Y2=0.18
r213 22 40 126.927 $w=1.5e-07 $l=3.95e-07 $layer=POLY_cond $X=6.23 $Y=2.64
+ $X2=6.23 $Y2=2.245
r214 19 39 646.085 $w=1.5e-07 $l=1.26e-06 $layer=POLY_cond $X=6.21 $Y=0.835
+ $X2=6.21 $Y2=2.095