* File: sky130_fd_sc_hs__sdfbbn_1.pex.spice
* Created: Thu Aug 27 21:07:51 2020
* Program "Calibre xRC"
* Version "v2018.4_34.26"
* Nominal Temperature: 27C
* Circuit Temperature: 27C
* 
.subckt PM_SKY130_FD_SC_HS__SDFBBN_1%SCD 2 4 5 7 10 12 13 16 17
c34 5 0 8.80698e-20 $X=0.505 $Y=2.245
r35 16 18 45.1558 $w=3.75e-07 $l=1.65e-07 $layer=POLY_cond $X=0.407 $Y=1.37
+ $X2=0.407 $Y2=1.205
r36 16 17 72.64 $w=1.7e-07 $l=3.4e-07 $layer=licon1_POLY $count=2 $X=0.385
+ $Y=1.37 $X2=0.385 $Y2=1.37
r37 13 17 2.58853 $w=6.68e-07 $l=1.45e-07 $layer=LI1_cond $X=0.24 $Y=1.54
+ $X2=0.385 $Y2=1.54
r38 10 18 205.106 $w=1.5e-07 $l=4e-07 $layer=POLY_cond $X=0.52 $Y=0.805 $X2=0.52
+ $Y2=1.205
r39 5 7 126.927 $w=1.5e-07 $l=3.95e-07 $layer=POLY_cond $X=0.505 $Y=2.245
+ $X2=0.505 $Y2=2.64
r40 4 5 36.0588 $w=1.8e-07 $l=9e-08 $layer=POLY_cond $X=0.505 $Y=2.155 $X2=0.505
+ $Y2=2.245
r41 4 12 108.839 $w=1.8e-07 $l=2.8e-07 $layer=POLY_cond $X=0.505 $Y=2.155
+ $X2=0.505 $Y2=1.875
r42 2 12 42.8297 $w=3.75e-07 $l=1.87e-07 $layer=POLY_cond $X=0.407 $Y=1.688
+ $X2=0.407 $Y2=1.875
r43 1 16 3.26277 $w=3.75e-07 $l=2.2e-08 $layer=POLY_cond $X=0.407 $Y=1.392
+ $X2=0.407 $Y2=1.37
r44 1 2 43.8991 $w=3.75e-07 $l=2.96e-07 $layer=POLY_cond $X=0.407 $Y=1.392
+ $X2=0.407 $Y2=1.688
.ends

.subckt PM_SKY130_FD_SC_HS__SDFBBN_1%D 3 8 10 11 12 18
c60 12 0 1.09771e-19 $X=1.68 $Y=1.665
r61 16 18 34.9723 $w=3.3e-07 $l=2e-07 $layer=POLY_cond $X=1.45 $Y=1.645 $X2=1.65
+ $Y2=1.645
r62 14 16 5.24584 $w=3.3e-07 $l=3e-08 $layer=POLY_cond $X=1.42 $Y=1.645 $X2=1.45
+ $Y2=1.645
r63 12 18 145.28 $w=1.7e-07 $l=1.7e-07 $layer=licon1_POLY $count=1 $X=1.65
+ $Y=1.645 $X2=1.65 $Y2=1.645
r64 10 11 56.6305 $w=1.65e-07 $l=1.3e-07 $layer=POLY_cond $X=1.412 $Y=2.115
+ $X2=1.412 $Y2=2.245
r65 6 16 21.2229 $w=1.5e-07 $l=1.65e-07 $layer=POLY_cond $X=1.45 $Y=1.48
+ $X2=1.45 $Y2=1.645
r66 6 8 346.117 $w=1.5e-07 $l=6.75e-07 $layer=POLY_cond $X=1.45 $Y=1.48 $X2=1.45
+ $Y2=0.805
r67 4 14 21.2229 $w=1.5e-07 $l=1.65e-07 $layer=POLY_cond $X=1.42 $Y=1.81
+ $X2=1.42 $Y2=1.645
r68 4 10 156.394 $w=1.5e-07 $l=3.05e-07 $layer=POLY_cond $X=1.42 $Y=1.81
+ $X2=1.42 $Y2=2.115
r69 3 11 126.927 $w=1.5e-07 $l=3.95e-07 $layer=POLY_cond $X=1.405 $Y=2.64
+ $X2=1.405 $Y2=2.245
.ends

.subckt PM_SKY130_FD_SC_HS__SDFBBN_1%A_353_93# 1 2 7 9 10 12 14 16 19 21 24 27
+ 35 38 41 42
c90 21 0 5.50415e-20 $X=1.855 $Y=2.147
c91 19 0 1.66897e-19 $X=2.13 $Y=1.165
r92 41 42 8.51103 $w=3.58e-07 $l=1.65e-07 $layer=LI1_cond $X=3.07 $Y=2.465
+ $X2=3.07 $Y2=2.3
r93 37 38 2.7938 $w=3.28e-07 $l=8e-08 $layer=LI1_cond $X=2.895 $Y=1.645
+ $X2=2.975 $Y2=1.645
r94 34 37 7.68295 $w=3.28e-07 $l=2.2e-07 $layer=LI1_cond $X=2.675 $Y=1.645
+ $X2=2.895 $Y2=1.645
r95 34 35 145.28 $w=1.7e-07 $l=1.7e-07 $layer=licon1_POLY $count=1 $X=2.675
+ $Y=1.645 $X2=2.675 $Y2=1.645
r96 29 38 4.62375 $w=1.7e-07 $l=1.65e-07 $layer=LI1_cond $X=2.975 $Y=1.81
+ $X2=2.975 $Y2=1.645
r97 29 42 31.9679 $w=1.68e-07 $l=4.9e-07 $layer=LI1_cond $X=2.975 $Y=1.81
+ $X2=2.975 $Y2=2.3
r98 25 37 0.716491 $w=3.3e-07 $l=1.65e-07 $layer=LI1_cond $X=2.895 $Y=1.48
+ $X2=2.895 $Y2=1.645
r99 25 27 23.2235 $w=3.28e-07 $l=6.65e-07 $layer=LI1_cond $X=2.895 $Y=1.48
+ $X2=2.895 $Y2=0.815
r100 23 35 82.1848 $w=3.3e-07 $l=4.7e-07 $layer=POLY_cond $X=2.205 $Y=1.645
+ $X2=2.675 $Y2=1.645
r101 23 24 5.03009 $w=3.3e-07 $l=7.5e-08 $layer=POLY_cond $X=2.205 $Y=1.645
+ $X2=2.13 $Y2=1.645
r102 21 22 78.8988 $w=1.68e-07 $l=2.75e-07 $layer=POLY_cond $X=1.855 $Y=2.147
+ $X2=2.13 $Y2=2.147
r103 17 19 148.702 $w=1.5e-07 $l=2.9e-07 $layer=POLY_cond $X=1.84 $Y=1.165
+ $X2=2.13 $Y2=1.165
r104 16 22 5.52526 $w=1.5e-07 $l=9.7e-08 $layer=POLY_cond $X=2.13 $Y=2.05
+ $X2=2.13 $Y2=2.147
r105 15 24 37.0704 $w=1.5e-07 $l=1.65e-07 $layer=POLY_cond $X=2.13 $Y=1.81
+ $X2=2.13 $Y2=1.645
r106 15 16 123.064 $w=1.5e-07 $l=2.4e-07 $layer=POLY_cond $X=2.13 $Y=1.81
+ $X2=2.13 $Y2=2.05
r107 14 24 37.0704 $w=1.5e-07 $l=1.65e-07 $layer=POLY_cond $X=2.13 $Y=1.48
+ $X2=2.13 $Y2=1.645
r108 13 19 2.83073 $w=1.5e-07 $l=7.5e-08 $layer=POLY_cond $X=2.13 $Y=1.24
+ $X2=2.13 $Y2=1.165
r109 13 14 123.064 $w=1.5e-07 $l=2.4e-07 $layer=POLY_cond $X=2.13 $Y=1.24
+ $X2=2.13 $Y2=1.48
r110 10 21 5.52526 $w=1.5e-07 $l=9.8e-08 $layer=POLY_cond $X=1.855 $Y=2.245
+ $X2=1.855 $Y2=2.147
r111 10 12 126.927 $w=1.5e-07 $l=3.95e-07 $layer=POLY_cond $X=1.855 $Y=2.245
+ $X2=1.855 $Y2=2.64
r112 7 17 2.83073 $w=1.5e-07 $l=7.5e-08 $layer=POLY_cond $X=1.84 $Y=1.09
+ $X2=1.84 $Y2=1.165
r113 7 9 91.58 $w=1.5e-07 $l=2.85e-07 $layer=POLY_cond $X=1.84 $Y=1.09 $X2=1.84
+ $Y2=0.805
r114 2 41 300 $w=1.7e-07 $l=2.10357e-07 $layer=licon1_PDIFF $count=2 $X=2.935
+ $Y=2.32 $X2=3.085 $Y2=2.465
r115 1 27 182 $w=1.7e-07 $l=2.81425e-07 $layer=licon1_NDIFF $count=1 $X=2.755
+ $Y=0.595 $X2=2.895 $Y2=0.815
.ends

.subckt PM_SKY130_FD_SC_HS__SDFBBN_1%SCE 4 6 7 9 10 11 15 16 17 18 20 22 25 26
+ 27 29 32
c105 32 0 8.1544e-20 $X=0.97 $Y=1.37
c106 4 0 2.95072e-20 $X=0.91 $Y=0.805
r107 32 33 72.64 $w=1.7e-07 $l=3.4e-07 $layer=licon1_POLY $count=2 $X=0.97
+ $Y=1.37 $X2=0.97 $Y2=1.37
r108 29 33 4.10594 $w=6.68e-07 $l=2.3e-07 $layer=LI1_cond $X=1.2 $Y=1.54
+ $X2=0.97 $Y2=1.54
r109 27 28 85.1437 $w=1.67e-07 $l=2.95e-07 $layer=POLY_cond $X=2.86 $Y=2.147
+ $X2=3.155 $Y2=2.147
r110 25 32 59.4528 $w=3.3e-07 $l=3.4e-07 $layer=POLY_cond $X=0.97 $Y=1.71
+ $X2=0.97 $Y2=1.37
r111 25 26 35.4289 $w=3.3e-07 $l=1.65e-07 $layer=POLY_cond $X=0.97 $Y=1.71
+ $X2=0.97 $Y2=1.875
r112 24 32 41.8716 $w=3.3e-07 $l=1.65e-07 $layer=POLY_cond $X=0.97 $Y=1.205
+ $X2=0.97 $Y2=1.37
r113 22 28 5.38489 $w=1.5e-07 $l=9.7e-08 $layer=POLY_cond $X=3.155 $Y=2.05
+ $X2=3.155 $Y2=2.147
r114 21 22 415.34 $w=1.5e-07 $l=8.1e-07 $layer=POLY_cond $X=3.155 $Y=1.24
+ $X2=3.155 $Y2=2.05
r115 18 27 5.38489 $w=1.5e-07 $l=9.8e-08 $layer=POLY_cond $X=2.86 $Y=2.245
+ $X2=2.86 $Y2=2.147
r116 18 20 126.927 $w=1.5e-07 $l=3.95e-07 $layer=POLY_cond $X=2.86 $Y=2.245
+ $X2=2.86 $Y2=2.64
r117 16 21 26.9307 $w=1.5e-07 $l=1.06066e-07 $layer=POLY_cond $X=3.08 $Y=1.165
+ $X2=3.155 $Y2=1.24
r118 16 17 166.649 $w=1.5e-07 $l=3.25e-07 $layer=POLY_cond $X=3.08 $Y=1.165
+ $X2=2.755 $Y2=1.165
r119 13 17 26.9307 $w=1.5e-07 $l=1.06066e-07 $layer=POLY_cond $X=2.68 $Y=1.09
+ $X2=2.755 $Y2=1.165
r120 13 15 146.138 $w=1.5e-07 $l=2.85e-07 $layer=POLY_cond $X=2.68 $Y=1.09
+ $X2=2.68 $Y2=0.805
r121 12 15 282.021 $w=1.5e-07 $l=5.5e-07 $layer=POLY_cond $X=2.68 $Y=0.255
+ $X2=2.68 $Y2=0.805
r122 10 12 26.9307 $w=1.5e-07 $l=1.06066e-07 $layer=POLY_cond $X=2.605 $Y=0.18
+ $X2=2.68 $Y2=0.255
r123 10 11 830.681 $w=1.5e-07 $l=1.62e-06 $layer=POLY_cond $X=2.605 $Y=0.18
+ $X2=0.985 $Y2=0.18
r124 7 9 126.927 $w=1.5e-07 $l=3.95e-07 $layer=POLY_cond $X=0.985 $Y=2.245
+ $X2=0.985 $Y2=2.64
r125 6 7 36.0588 $w=1.8e-07 $l=9e-08 $layer=POLY_cond $X=0.985 $Y=2.155
+ $X2=0.985 $Y2=2.245
r126 6 26 108.839 $w=1.8e-07 $l=2.8e-07 $layer=POLY_cond $X=0.985 $Y=2.155
+ $X2=0.985 $Y2=1.875
r127 4 24 205.106 $w=1.5e-07 $l=4e-07 $layer=POLY_cond $X=0.91 $Y=0.805 $X2=0.91
+ $Y2=1.205
r128 1 11 26.9307 $w=1.5e-07 $l=1.06066e-07 $layer=POLY_cond $X=0.91 $Y=0.255
+ $X2=0.985 $Y2=0.18
r129 1 4 282.021 $w=1.5e-07 $l=5.5e-07 $layer=POLY_cond $X=0.91 $Y=0.255
+ $X2=0.91 $Y2=0.805
.ends

.subckt PM_SKY130_FD_SC_HS__SDFBBN_1%CLK_N 3 5 7 8 12
c39 5 0 1.13441e-19 $X=3.87 $Y=1.765
c40 3 0 1.60531e-19 $X=3.67 $Y=0.78
r41 11 12 145.28 $w=1.7e-07 $l=1.7e-07 $layer=licon1_POLY $count=1 $X=3.635
+ $Y=1.515 $X2=3.635 $Y2=1.515
r42 8 12 5.23838 $w=3.28e-07 $l=1.5e-07 $layer=LI1_cond $X=3.635 $Y=1.665
+ $X2=3.635 $Y2=1.515
r43 5 11 49.7466 $w=4.26e-07 $l=3.18198e-07 $layer=POLY_cond $X=3.87 $Y=1.765
+ $X2=3.715 $Y2=1.515
r44 5 7 204.047 $w=1.5e-07 $l=6.35e-07 $layer=POLY_cond $X=3.87 $Y=1.765
+ $X2=3.87 $Y2=2.4
r45 1 11 40.1292 $w=4.26e-07 $l=1.86145e-07 $layer=POLY_cond $X=3.67 $Y=1.35
+ $X2=3.715 $Y2=1.515
r46 1 3 292.277 $w=1.5e-07 $l=5.7e-07 $layer=POLY_cond $X=3.67 $Y=1.35 $X2=3.67
+ $Y2=0.78
.ends

.subckt PM_SKY130_FD_SC_HS__SDFBBN_1%A_977_243# 1 2 3 12 13 14 16 19 23 25 27 28
+ 29 31 33 36 38 39 42 44 45 49 53 57 58 64 65 67 70 74
c200 57 0 7.19434e-20 $X=5.05 $Y=2.13
c201 53 0 1.7536e-19 $X=9.365 $Y=1.795
c202 42 0 1.77523e-19 $X=7.845 $Y=2.31
c203 31 0 1.02525e-19 $X=5.05 $Y=2.145
c204 29 0 1.49471e-19 $X=5.05 $Y=1.755
c205 25 0 1.74547e-19 $X=9.44 $Y=2.045
c206 19 0 8.96875e-20 $X=5.68 $Y=0.805
r207 72 74 3.904 $w=2.5e-07 $l=8e-08 $layer=LI1_cond $X=8.662 $Y=2.395 $X2=8.662
+ $Y2=2.475
r208 71 72 8.784 $w=2.5e-07 $l=1.8e-07 $layer=LI1_cond $X=8.662 $Y=2.215
+ $X2=8.662 $Y2=2.395
r209 67 69 10.5575 $w=3.28e-07 $l=2.25e-07 $layer=LI1_cond $X=7.925 $Y=0.855
+ $X2=7.925 $Y2=1.08
r210 63 65 8.89604 $w=4.23e-07 $l=1.7e-07 $layer=LI1_cond $X=7.335 $Y=2.862
+ $X2=7.505 $Y2=2.862
r211 63 64 15.404 $w=4.23e-07 $l=4.1e-07 $layer=LI1_cond $X=7.335 $Y=2.862
+ $X2=6.925 $Y2=2.862
r212 57 60 3.47907 $w=2.63e-07 $l=8e-08 $layer=LI1_cond $X=5.082 $Y=2.13
+ $X2=5.082 $Y2=2.21
r213 57 58 145.28 $w=1.7e-07 $l=1.7e-07 $layer=licon1_POLY $count=1 $X=5.05
+ $Y=2.13 $X2=5.05 $Y2=2.13
r214 53 54 145.28 $w=1.7e-07 $l=1.7e-07 $layer=licon1_POLY $count=1 $X=9.365
+ $Y=1.795 $X2=9.365 $Y2=1.795
r215 51 53 11.699 $w=3.28e-07 $l=3.35e-07 $layer=LI1_cond $X=9.365 $Y=2.13
+ $X2=9.365 $Y2=1.795
r216 50 71 2.99516 $w=1.7e-07 $l=1.68e-07 $layer=LI1_cond $X=8.83 $Y=2.215
+ $X2=8.662 $Y2=2.215
r217 49 51 7.76618 $w=1.7e-07 $l=2.03101e-07 $layer=LI1_cond $X=9.2 $Y=2.215
+ $X2=9.365 $Y2=2.13
r218 49 50 24.139 $w=1.68e-07 $l=3.7e-07 $layer=LI1_cond $X=9.2 $Y=2.215
+ $X2=8.83 $Y2=2.215
r219 46 70 1.34256 $w=1.7e-07 $l=8.5e-08 $layer=LI1_cond $X=7.93 $Y=2.395
+ $X2=7.845 $Y2=2.395
r220 45 72 2.99516 $w=1.7e-07 $l=1.67e-07 $layer=LI1_cond $X=8.495 $Y=2.395
+ $X2=8.662 $Y2=2.395
r221 45 46 36.861 $w=1.68e-07 $l=5.65e-07 $layer=LI1_cond $X=8.495 $Y=2.395
+ $X2=7.93 $Y2=2.395
r222 43 70 5.16603 $w=1.7e-07 $l=8.5e-08 $layer=LI1_cond $X=7.845 $Y=2.48
+ $X2=7.845 $Y2=2.395
r223 43 44 11.0909 $w=1.68e-07 $l=1.7e-07 $layer=LI1_cond $X=7.845 $Y=2.48
+ $X2=7.845 $Y2=2.65
r224 42 70 5.16603 $w=1.7e-07 $l=8.5e-08 $layer=LI1_cond $X=7.845 $Y=2.31
+ $X2=7.845 $Y2=2.395
r225 42 69 80.246 $w=1.68e-07 $l=1.23e-06 $layer=LI1_cond $X=7.845 $Y=2.31
+ $X2=7.845 $Y2=1.08
r226 39 44 6.81649 $w=1.7e-07 $l=1.20208e-07 $layer=LI1_cond $X=7.76 $Y=2.735
+ $X2=7.845 $Y2=2.65
r227 39 65 16.6364 $w=1.68e-07 $l=2.55e-07 $layer=LI1_cond $X=7.76 $Y=2.735
+ $X2=7.505 $Y2=2.735
r228 38 64 85.7914 $w=1.68e-07 $l=1.315e-06 $layer=LI1_cond $X=5.61 $Y=2.99
+ $X2=6.925 $Y2=2.99
r229 36 38 6.81649 $w=1.7e-07 $l=1.20208e-07 $layer=LI1_cond $X=5.525 $Y=2.905
+ $X2=5.61 $Y2=2.99
r230 35 36 39.7968 $w=1.68e-07 $l=6.1e-07 $layer=LI1_cond $X=5.525 $Y=2.295
+ $X2=5.525 $Y2=2.905
r231 34 60 3.33486 $w=1.7e-07 $l=1.33e-07 $layer=LI1_cond $X=5.215 $Y=2.21
+ $X2=5.082 $Y2=2.21
r232 33 35 6.81649 $w=1.7e-07 $l=1.20208e-07 $layer=LI1_cond $X=5.44 $Y=2.21
+ $X2=5.525 $Y2=2.295
r233 33 34 14.6791 $w=1.68e-07 $l=2.25e-07 $layer=LI1_cond $X=5.44 $Y=2.21
+ $X2=5.215 $Y2=2.21
r234 31 58 2.62292 $w=3.3e-07 $l=1.5e-08 $layer=POLY_cond $X=5.05 $Y=2.145
+ $X2=5.05 $Y2=2.13
r235 31 32 71.7872 $w=1.88e-07 $l=2.8e-07 $layer=POLY_cond $X=5.05 $Y=2.277
+ $X2=5.33 $Y2=2.277
r236 28 58 36.7209 $w=3.3e-07 $l=2.1e-07 $layer=POLY_cond $X=5.05 $Y=1.92
+ $X2=5.05 $Y2=2.13
r237 28 29 46.2115 $w=3.3e-07 $l=1.65e-07 $layer=POLY_cond $X=5.05 $Y=1.92
+ $X2=5.05 $Y2=1.755
r238 25 54 52.2586 $w=2.99e-07 $l=2.85044e-07 $layer=POLY_cond $X=9.44 $Y=2.045
+ $X2=9.365 $Y2=1.795
r239 25 27 159.06 $w=1.5e-07 $l=4.95e-07 $layer=POLY_cond $X=9.44 $Y=2.045
+ $X2=9.44 $Y2=2.54
r240 21 54 38.5562 $w=2.99e-07 $l=1.92678e-07 $layer=POLY_cond $X=9.305 $Y=1.63
+ $X2=9.365 $Y2=1.795
r241 21 23 389.702 $w=1.5e-07 $l=7.6e-07 $layer=POLY_cond $X=9.305 $Y=1.63
+ $X2=9.305 $Y2=0.87
r242 17 19 210.234 $w=1.5e-07 $l=4.1e-07 $layer=POLY_cond $X=5.68 $Y=1.215
+ $X2=5.68 $Y2=0.805
r243 14 32 8.14712 $w=1.5e-07 $l=1.33e-07 $layer=POLY_cond $X=5.33 $Y=2.41
+ $X2=5.33 $Y2=2.277
r244 14 16 91.58 $w=1.5e-07 $l=2.85e-07 $layer=POLY_cond $X=5.33 $Y=2.41
+ $X2=5.33 $Y2=2.695
r245 12 17 26.9307 $w=1.5e-07 $l=1.06066e-07 $layer=POLY_cond $X=5.605 $Y=1.29
+ $X2=5.68 $Y2=1.215
r246 12 13 292.277 $w=1.5e-07 $l=5.7e-07 $layer=POLY_cond $X=5.605 $Y=1.29
+ $X2=5.035 $Y2=1.29
r247 10 13 26.9307 $w=1.5e-07 $l=1.06066e-07 $layer=POLY_cond $X=4.96 $Y=1.365
+ $X2=5.035 $Y2=1.29
r248 10 29 199.979 $w=1.5e-07 $l=3.9e-07 $layer=POLY_cond $X=4.96 $Y=1.365
+ $X2=4.96 $Y2=1.755
r249 3 74 300 $w=1.7e-07 $l=4.23409e-07 $layer=licon1_PDIFF $count=2 $X=8.51
+ $Y=2.12 $X2=8.66 $Y2=2.475
r250 2 63 600 $w=1.7e-07 $l=8.00125e-07 $layer=licon1_PDIFF $count=1 $X=7.025
+ $Y=2.12 $X2=7.335 $Y2=2.78
r251 1 67 182 $w=1.7e-07 $l=3.60555e-07 $layer=licon1_NDIFF $count=1 $X=7.685
+ $Y=0.595 $X2=7.925 $Y2=0.855
.ends

.subckt PM_SKY130_FD_SC_HS__SDFBBN_1%A_867_82# 1 2 8 9 11 14 16 18 21 23 26 28
+ 31 36 38 39 45 46 47 50 51 57 58 61 76 77
c221 77 0 1.02525e-19 $X=5.755 $Y=1.727
c222 26 0 1.13441e-19 $X=4.58 $Y=2.04
c223 23 0 1.60531e-19 $X=4.61 $Y=1.045
c224 21 0 3.18534e-20 $X=10.745 $Y=0.805
c225 16 0 1.23448e-20 $X=9.83 $Y=2.045
c226 14 0 2.29882e-20 $X=6.47 $Y=0.805
r227 61 63 20.6118 $w=3.04e-07 $l=1.3e-07 $layer=POLY_cond $X=5.59 $Y=1.74
+ $X2=5.72 $Y2=1.74
r228 58 68 145.28 $w=1.7e-07 $l=1.7e-07 $layer=licon1_POLY $count=1 $X=9.905
+ $Y=1.775 $X2=9.905 $Y2=1.775
r229 57 58 9.3 $w=1.7e-07 $l=1.7e-07 $layer=mcon $count=1 $X=9.84 $Y=1.665
+ $X2=9.84 $Y2=1.665
r230 54 77 8.65129 $w=3.53e-07 $l=2.35e-07 $layer=LI1_cond $X=5.52 $Y=1.727
+ $X2=5.755 $Y2=1.727
r231 54 76 6.8759 $w=3.53e-07 $l=1.15e-07 $layer=LI1_cond $X=5.52 $Y=1.727
+ $X2=5.405 $Y2=1.727
r232 54 61 145.28 $w=1.7e-07 $l=1.7e-07 $layer=licon1_POLY $count=1 $X=5.59
+ $Y=1.74 $X2=5.59 $Y2=1.74
r233 53 54 9.3 $w=1.7e-07 $l=1.7e-07 $layer=mcon $count=1 $X=5.52 $Y=1.665
+ $X2=5.52 $Y2=1.665
r234 51 53 0.115467 $w=2.3e-07 $l=1.45e-07 $layer=MET1_cond $X=5.665 $Y=1.665
+ $X2=5.52 $Y2=1.665
r235 50 57 0.115467 $w=2.3e-07 $l=1.45e-07 $layer=MET1_cond $X=9.695 $Y=1.665
+ $X2=9.84 $Y2=1.665
r236 50 51 4.98761 $w=1.4e-07 $l=4.03e-06 $layer=MET1_cond $X=9.695 $Y=1.665
+ $X2=5.665 $Y2=1.665
r237 49 58 3.67446 $w=3.43e-07 $l=1.1e-07 $layer=LI1_cond $X=9.897 $Y=1.555
+ $X2=9.897 $Y2=1.665
r238 47 77 28.8111 $w=2.48e-07 $l=6.25e-07 $layer=LI1_cond $X=6.38 $Y=1.675
+ $X2=5.755 $Y2=1.675
r239 46 65 46.2115 $w=3.3e-07 $l=1.65e-07 $layer=POLY_cond $X=6.545 $Y=1.635
+ $X2=6.545 $Y2=1.47
r240 45 47 6.46688 $w=3.28e-07 $l=1.65e-07 $layer=LI1_cond $X=6.545 $Y=1.635
+ $X2=6.38 $Y2=1.635
r241 45 46 145.28 $w=1.7e-07 $l=1.7e-07 $layer=licon1_POLY $count=1 $X=6.545
+ $Y=1.635 $X2=6.545 $Y2=1.635
r242 41 43 16.9064 $w=2.67e-07 $l=3.7e-07 $layer=LI1_cond $X=4.61 $Y=1.635
+ $X2=4.61 $Y2=2.005
r243 39 71 46.2115 $w=3.3e-07 $l=1.65e-07 $layer=POLY_cond $X=10.835 $Y=1.41
+ $X2=10.835 $Y2=1.245
r244 38 39 145.28 $w=1.7e-07 $l=1.7e-07 $layer=licon1_POLY $count=1 $X=10.835
+ $Y=1.41 $X2=10.835 $Y2=1.41
r245 36 49 6.87075 $w=2.95e-07 $l=2.35654e-07 $layer=LI1_cond $X=10.07 $Y=1.407
+ $X2=9.897 $Y2=1.555
r246 36 38 29.8854 $w=2.93e-07 $l=7.65e-07 $layer=LI1_cond $X=10.07 $Y=1.407
+ $X2=10.835 $Y2=1.407
r247 33 41 3.37873 $w=1.7e-07 $l=1.8e-07 $layer=LI1_cond $X=4.79 $Y=1.635
+ $X2=4.61 $Y2=1.635
r248 33 76 40.123 $w=1.68e-07 $l=6.15e-07 $layer=LI1_cond $X=4.79 $Y=1.635
+ $X2=5.405 $Y2=1.635
r249 31 41 5.1848 $w=2.67e-07 $l=1.25499e-07 $layer=LI1_cond $X=4.7 $Y=1.55
+ $X2=4.61 $Y2=1.635
r250 30 31 23.4141 $w=1.78e-07 $l=3.8e-07 $layer=LI1_cond $X=4.7 $Y=1.17 $X2=4.7
+ $Y2=1.55
r251 26 43 2.41973 $w=4e-07 $l=4.7697e-08 $layer=LI1_cond $X=4.58 $Y=2.04
+ $X2=4.61 $Y2=2.005
r252 26 28 22.3286 $w=3.98e-07 $l=7.75e-07 $layer=LI1_cond $X=4.58 $Y=2.04
+ $X2=4.58 $Y2=2.815
r253 23 30 7.0541 $w=2.5e-07 $l=1.63936e-07 $layer=LI1_cond $X=4.61 $Y=1.045
+ $X2=4.7 $Y2=1.17
r254 23 25 2.928 $w=2.5e-07 $l=6e-08 $layer=LI1_cond $X=4.61 $Y=1.045 $X2=4.55
+ $Y2=1.045
r255 21 71 225.617 $w=1.5e-07 $l=4.4e-07 $layer=POLY_cond $X=10.745 $Y=0.805
+ $X2=10.745 $Y2=1.245
r256 16 68 55.8646 $w=2.93e-07 $l=3.05205e-07 $layer=POLY_cond $X=9.83 $Y=2.045
+ $X2=9.905 $Y2=1.775
r257 16 18 159.06 $w=1.5e-07 $l=4.95e-07 $layer=POLY_cond $X=9.83 $Y=2.045
+ $X2=9.83 $Y2=2.54
r258 14 65 340.989 $w=1.5e-07 $l=6.65e-07 $layer=POLY_cond $X=6.47 $Y=0.805
+ $X2=6.47 $Y2=1.47
r259 9 11 91.58 $w=1.5e-07 $l=2.85e-07 $layer=POLY_cond $X=5.72 $Y=2.41 $X2=5.72
+ $Y2=2.695
r260 8 9 36.0588 $w=1.8e-07 $l=9e-08 $layer=POLY_cond $X=5.72 $Y=2.32 $X2=5.72
+ $Y2=2.41
r261 7 63 15.0262 $w=1.8e-07 $l=1.65e-07 $layer=POLY_cond $X=5.72 $Y=1.905
+ $X2=5.72 $Y2=1.74
r262 7 8 161.315 $w=1.8e-07 $l=4.15e-07 $layer=POLY_cond $X=5.72 $Y=1.905
+ $X2=5.72 $Y2=2.32
r263 2 43 400 $w=1.7e-07 $l=2.2798e-07 $layer=licon1_PDIFF $count=1 $X=4.395
+ $Y=1.84 $X2=4.545 $Y2=2.005
r264 2 28 400 $w=1.7e-07 $l=1.04732e-06 $layer=licon1_PDIFF $count=1 $X=4.395
+ $Y=1.84 $X2=4.545 $Y2=2.815
r265 1 25 182 $w=1.7e-07 $l=6.94226e-07 $layer=licon1_NDIFF $count=1 $X=4.335
+ $Y=0.41 $X2=4.55 $Y2=1.005
.ends

.subckt PM_SKY130_FD_SC_HS__SDFBBN_1%A_1159_497# 1 2 7 8 10 11 13 14 16 18 21 23
+ 25 26 30 31 32
c97 26 0 8.96875e-20 $X=6.42 $Y=1.215
c98 8 0 2.87426e-20 $X=7.25 $Y=1.33
r99 32 34 19.511 $w=2.72e-07 $l=4.35e-07 $layer=LI1_cond $X=6.03 $Y=2.055
+ $X2=6.03 $Y2=2.49
r100 30 31 72.64 $w=1.7e-07 $l=3.4e-07 $layer=licon1_POLY $count=2 $X=7.085
+ $Y=1.42 $X2=7.085 $Y2=1.42
r101 28 30 19.2074 $w=3.28e-07 $l=5.5e-07 $layer=LI1_cond $X=7.085 $Y=1.97
+ $X2=7.085 $Y2=1.42
r102 27 30 4.1907 $w=3.28e-07 $l=1.2e-07 $layer=LI1_cond $X=7.085 $Y=1.3
+ $X2=7.085 $Y2=1.42
r103 25 27 7.76618 $w=1.7e-07 $l=2.03101e-07 $layer=LI1_cond $X=6.92 $Y=1.215
+ $X2=7.085 $Y2=1.3
r104 25 26 32.6203 $w=1.68e-07 $l=5e-07 $layer=LI1_cond $X=6.92 $Y=1.215
+ $X2=6.42 $Y2=1.215
r105 24 32 3.48705 $w=1.7e-07 $l=1.65e-07 $layer=LI1_cond $X=6.195 $Y=2.055
+ $X2=6.03 $Y2=2.055
r106 23 28 7.76618 $w=1.7e-07 $l=2.03101e-07 $layer=LI1_cond $X=6.92 $Y=2.055
+ $X2=7.085 $Y2=1.97
r107 23 24 47.2995 $w=1.68e-07 $l=7.25e-07 $layer=LI1_cond $X=6.92 $Y=2.055
+ $X2=6.195 $Y2=2.055
r108 19 26 7.14316 $w=1.7e-07 $l=1.62019e-07 $layer=LI1_cond $X=6.295 $Y=1.13
+ $X2=6.42 $Y2=1.215
r109 19 21 14.5208 $w=2.48e-07 $l=3.15e-07 $layer=LI1_cond $X=6.295 $Y=1.13
+ $X2=6.295 $Y2=0.815
r110 17 31 2.62292 $w=3.3e-07 $l=1.5e-08 $layer=POLY_cond $X=7.085 $Y=1.405
+ $X2=7.085 $Y2=1.42
r111 14 18 18.8402 $w=1.65e-07 $l=8.87412e-08 $layer=POLY_cond $X=7.61 $Y=1.255
+ $X2=7.58 $Y2=1.33
r112 14 16 123.713 $w=1.5e-07 $l=3.85e-07 $layer=POLY_cond $X=7.61 $Y=1.255
+ $X2=7.61 $Y2=0.87
r113 11 13 159.06 $w=1.5e-07 $l=4.95e-07 $layer=POLY_cond $X=7.565 $Y=2.045
+ $X2=7.565 $Y2=2.54
r114 10 11 36.0588 $w=1.8e-07 $l=9e-08 $layer=POLY_cond $X=7.565 $Y=1.955
+ $X2=7.565 $Y2=2.045
r115 9 18 18.8402 $w=1.65e-07 $l=8.21584e-08 $layer=POLY_cond $X=7.565 $Y=1.405
+ $X2=7.58 $Y2=1.33
r116 9 10 213.79 $w=1.8e-07 $l=5.5e-07 $layer=POLY_cond $X=7.565 $Y=1.405
+ $X2=7.565 $Y2=1.955
r117 8 17 32.1775 $w=1.5e-07 $l=1.98997e-07 $layer=POLY_cond $X=7.25 $Y=1.33
+ $X2=7.085 $Y2=1.405
r118 7 18 6.66866 $w=1.5e-07 $l=1.05e-07 $layer=POLY_cond $X=7.475 $Y=1.33
+ $X2=7.58 $Y2=1.33
r119 7 8 115.372 $w=1.5e-07 $l=2.25e-07 $layer=POLY_cond $X=7.475 $Y=1.33
+ $X2=7.25 $Y2=1.33
r120 2 34 600 $w=1.7e-07 $l=2.37487e-07 $layer=licon1_PDIFF $count=1 $X=5.795
+ $Y=2.485 $X2=6.03 $Y2=2.49
r121 1 21 182 $w=1.7e-07 $l=2.81425e-07 $layer=licon1_NDIFF $count=1 $X=6.115
+ $Y=0.595 $X2=6.255 $Y2=0.815
.ends

.subckt PM_SKY130_FD_SC_HS__SDFBBN_1%A_1579_258# 1 2 8 9 11 14 16 18 19 20 21 23
+ 24 27 28 29 30 33 34 35 36 39 42 44 46 48 52 54 58 65
c202 58 0 9.562e-20 $X=12.365 $Y=1.215
c203 48 0 1.37535e-19 $X=8.265 $Y=1.375
c204 44 0 7.63376e-20 $X=13.78 $Y=1.915
c205 21 0 3.53982e-19 $X=12.47 $Y=1.885
c206 14 0 4.35224e-20 $X=8.14 $Y=0.87
c207 9 0 1.54972e-19 $X=7.985 $Y=2.045
c208 8 0 1.76028e-19 $X=7.985 $Y=1.955
r209 67 69 27.1035 $w=3.3e-07 $l=1.55e-07 $layer=POLY_cond $X=7.985 $Y=1.455
+ $X2=8.14 $Y2=1.455
r210 64 65 8.15508 $w=1.68e-07 $l=1.25e-07 $layer=LI1_cond $X=13.695 $Y=1.215
+ $X2=13.82 $Y2=1.215
r211 61 62 145.28 $w=1.7e-07 $l=1.7e-07 $layer=licon1_POLY $count=1 $X=12.365
+ $Y=1.385 $X2=12.365 $Y2=1.385
r212 58 61 5.93683 $w=3.28e-07 $l=1.7e-07 $layer=LI1_cond $X=12.365 $Y=1.215
+ $X2=12.365 $Y2=1.385
r213 54 56 14.0267 $w=1.68e-07 $l=2.15e-07 $layer=LI1_cond $X=10.835 $Y=0.45
+ $X2=10.835 $Y2=0.665
r214 52 69 21.8577 $w=3.3e-07 $l=1.25e-07 $layer=POLY_cond $X=8.265 $Y=1.455
+ $X2=8.14 $Y2=1.455
r215 51 52 145.28 $w=1.7e-07 $l=1.7e-07 $layer=licon1_POLY $count=1 $X=8.265
+ $Y=1.455 $X2=8.265 $Y2=1.455
r216 48 51 2.7938 $w=3.28e-07 $l=8e-08 $layer=LI1_cond $X=8.265 $Y=1.375
+ $X2=8.265 $Y2=1.455
r217 44 46 4.14879 $w=2.48e-07 $l=9e-08 $layer=LI1_cond $X=13.78 $Y=1.915
+ $X2=13.87 $Y2=1.915
r218 40 65 0.716491 $w=1.7e-07 $l=8.5e-08 $layer=LI1_cond $X=13.82 $Y=1.13
+ $X2=13.82 $Y2=1.215
r219 40 42 15.0053 $w=1.68e-07 $l=2.3e-07 $layer=LI1_cond $X=13.82 $Y=1.13
+ $X2=13.82 $Y2=0.9
r220 39 44 7.14316 $w=2.5e-07 $l=1.62019e-07 $layer=LI1_cond $X=13.695 $Y=1.79
+ $X2=13.78 $Y2=1.915
r221 38 64 0.716491 $w=1.7e-07 $l=8.5e-08 $layer=LI1_cond $X=13.695 $Y=1.3
+ $X2=13.695 $Y2=1.215
r222 38 39 31.9679 $w=1.68e-07 $l=4.9e-07 $layer=LI1_cond $X=13.695 $Y=1.3
+ $X2=13.695 $Y2=1.79
r223 37 58 4.62375 $w=1.7e-07 $l=1.65e-07 $layer=LI1_cond $X=12.53 $Y=1.215
+ $X2=12.365 $Y2=1.215
r224 36 64 5.54545 $w=1.68e-07 $l=8.5e-08 $layer=LI1_cond $X=13.61 $Y=1.215
+ $X2=13.695 $Y2=1.215
r225 36 37 70.4599 $w=1.68e-07 $l=1.08e-06 $layer=LI1_cond $X=13.61 $Y=1.215
+ $X2=12.53 $Y2=1.215
r226 34 58 4.62375 $w=1.7e-07 $l=1.65e-07 $layer=LI1_cond $X=12.2 $Y=1.215
+ $X2=12.365 $Y2=1.215
r227 34 35 33.9251 $w=1.68e-07 $l=5.2e-07 $layer=LI1_cond $X=12.2 $Y=1.215
+ $X2=11.68 $Y2=1.215
r228 33 35 6.81649 $w=1.7e-07 $l=1.20208e-07 $layer=LI1_cond $X=11.595 $Y=1.13
+ $X2=11.68 $Y2=1.215
r229 32 33 24.7914 $w=1.68e-07 $l=3.8e-07 $layer=LI1_cond $X=11.595 $Y=0.75
+ $X2=11.595 $Y2=1.13
r230 31 56 0.716491 $w=1.7e-07 $l=8.5e-08 $layer=LI1_cond $X=10.92 $Y=0.665
+ $X2=10.835 $Y2=0.665
r231 30 32 6.81649 $w=1.7e-07 $l=1.20208e-07 $layer=LI1_cond $X=11.51 $Y=0.665
+ $X2=11.595 $Y2=0.75
r232 30 31 38.492 $w=1.68e-07 $l=5.9e-07 $layer=LI1_cond $X=11.51 $Y=0.665
+ $X2=10.92 $Y2=0.665
r233 28 54 0.716491 $w=1.7e-07 $l=8.5e-08 $layer=LI1_cond $X=10.75 $Y=0.45
+ $X2=10.835 $Y2=0.45
r234 28 29 77.9626 $w=1.68e-07 $l=1.195e-06 $layer=LI1_cond $X=10.75 $Y=0.45
+ $X2=9.555 $Y2=0.45
r235 26 29 6.81649 $w=1.7e-07 $l=1.20208e-07 $layer=LI1_cond $X=9.47 $Y=0.535
+ $X2=9.555 $Y2=0.45
r236 26 27 49.2567 $w=1.68e-07 $l=7.55e-07 $layer=LI1_cond $X=9.47 $Y=0.535
+ $X2=9.47 $Y2=1.29
r237 25 48 4.62375 $w=1.7e-07 $l=1.65e-07 $layer=LI1_cond $X=8.43 $Y=1.375
+ $X2=8.265 $Y2=1.375
r238 24 27 6.81649 $w=1.7e-07 $l=1.20208e-07 $layer=LI1_cond $X=9.385 $Y=1.375
+ $X2=9.47 $Y2=1.29
r239 24 25 62.3048 $w=1.68e-07 $l=9.55e-07 $layer=LI1_cond $X=9.385 $Y=1.375
+ $X2=8.43 $Y2=1.375
r240 21 23 184.767 $w=1.5e-07 $l=5.75e-07 $layer=POLY_cond $X=12.47 $Y=1.885
+ $X2=12.47 $Y2=2.46
r241 20 21 36.0588 $w=1.8e-07 $l=9e-08 $layer=POLY_cond $X=12.47 $Y=1.795
+ $X2=12.47 $Y2=1.885
r242 19 62 34.0194 $w=3.43e-07 $l=2.05122e-07 $layer=POLY_cond $X=12.47 $Y=1.55
+ $X2=12.38 $Y2=1.385
r243 19 20 95.2339 $w=1.8e-07 $l=2.45e-07 $layer=POLY_cond $X=12.47 $Y=1.55
+ $X2=12.47 $Y2=1.795
r244 16 62 38.7084 $w=3.43e-07 $l=1.94808e-07 $layer=POLY_cond $X=12.315 $Y=1.22
+ $X2=12.38 $Y2=1.385
r245 16 18 154.24 $w=1.5e-07 $l=4.8e-07 $layer=POLY_cond $X=12.315 $Y=1.22
+ $X2=12.315 $Y2=0.74
r246 12 69 21.2229 $w=1.5e-07 $l=1.65e-07 $layer=POLY_cond $X=8.14 $Y=1.29
+ $X2=8.14 $Y2=1.455
r247 12 14 215.362 $w=1.5e-07 $l=4.2e-07 $layer=POLY_cond $X=8.14 $Y=1.29
+ $X2=8.14 $Y2=0.87
r248 9 11 159.06 $w=1.5e-07 $l=4.95e-07 $layer=POLY_cond $X=7.985 $Y=2.045
+ $X2=7.985 $Y2=2.54
r249 8 9 36.0588 $w=1.8e-07 $l=9e-08 $layer=POLY_cond $X=7.985 $Y=1.955
+ $X2=7.985 $Y2=2.045
r250 7 67 16.9318 $w=1.8e-07 $l=1.65e-07 $layer=POLY_cond $X=7.985 $Y=1.62
+ $X2=7.985 $Y2=1.455
r251 7 8 130.218 $w=1.8e-07 $l=3.35e-07 $layer=POLY_cond $X=7.985 $Y=1.62
+ $X2=7.985 $Y2=1.955
r252 2 46 600 $w=1.7e-07 $l=3.34739e-07 $layer=licon1_PDIFF $count=1 $X=13.6
+ $Y=1.73 $X2=13.87 $Y2=1.875
r253 1 42 182 $w=1.7e-07 $l=2.73038e-07 $layer=licon1_NDIFF $count=1 $X=13.675
+ $Y=0.69 $X2=13.82 $Y2=0.9
.ends

.subckt PM_SKY130_FD_SC_HS__SDFBBN_1%SET_B 1 3 6 8 10 13 15 16 19 21 24 30
c135 24 0 3.15057e-19 $X=8.745 $Y=1.837
c136 21 0 1.48476e-19 $X=11.76 $Y=2.035
c137 6 0 1.76028e-19 $X=8.745 $Y=0.87
r138 30 34 13.969 $w=3.28e-07 $l=4e-07 $layer=LI1_cond $X=11.795 $Y=1.635
+ $X2=11.795 $Y2=2.035
r139 29 30 145.28 $w=1.7e-07 $l=1.7e-07 $layer=licon1_POLY $count=1 $X=11.795
+ $Y=1.635 $X2=11.795 $Y2=1.635
r140 26 27 145.28 $w=1.7e-07 $l=1.7e-07 $layer=licon1_POLY $count=1 $X=8.825
+ $Y=1.795 $X2=8.825 $Y2=1.795
r141 24 26 13.9206 $w=2.77e-07 $l=8e-08 $layer=POLY_cond $X=8.745 $Y=1.837
+ $X2=8.825 $Y2=1.837
r142 21 34 9.3 $w=1.7e-07 $l=1.7e-07 $layer=mcon $count=1 $X=11.76 $Y=2.035
+ $X2=11.76 $Y2=2.035
r143 19 27 17.4579 $w=2.97e-07 $l=4.25e-07 $layer=LI1_cond $X=8.4 $Y=1.885
+ $X2=8.825 $Y2=1.885
r144 18 19 9.3 $w=1.7e-07 $l=1.7e-07 $layer=mcon $count=1 $X=8.4 $Y=2.035
+ $X2=8.4 $Y2=2.035
r145 16 18 0.115467 $w=2.3e-07 $l=1.45e-07 $layer=MET1_cond $X=8.545 $Y=2.035
+ $X2=8.4 $Y2=2.035
r146 15 21 0.115467 $w=2.3e-07 $l=1.45e-07 $layer=MET1_cond $X=11.615 $Y=2.035
+ $X2=11.76 $Y2=2.035
r147 15 16 3.7995 $w=1.4e-07 $l=3.07e-06 $layer=MET1_cond $X=11.615 $Y=2.035
+ $X2=8.545 $Y2=2.035
r148 11 29 38.5562 $w=2.99e-07 $l=2.05122e-07 $layer=POLY_cond $X=11.885 $Y=1.47
+ $X2=11.795 $Y2=1.635
r149 11 13 374.319 $w=1.5e-07 $l=7.3e-07 $layer=POLY_cond $X=11.885 $Y=1.47
+ $X2=11.885 $Y2=0.74
r150 8 29 52.2586 $w=2.99e-07 $l=2.76134e-07 $layer=POLY_cond $X=11.85 $Y=1.885
+ $X2=11.795 $Y2=1.635
r151 8 10 184.767 $w=1.5e-07 $l=5.75e-07 $layer=POLY_cond $X=11.85 $Y=1.885
+ $X2=11.85 $Y2=2.46
r152 4 24 17.1008 $w=1.5e-07 $l=2.07e-07 $layer=POLY_cond $X=8.745 $Y=1.63
+ $X2=8.745 $Y2=1.837
r153 4 6 389.702 $w=1.5e-07 $l=7.6e-07 $layer=POLY_cond $X=8.745 $Y=1.63
+ $X2=8.745 $Y2=0.87
r154 1 24 53.9422 $w=2.77e-07 $l=4.00724e-07 $layer=POLY_cond $X=8.435 $Y=2.045
+ $X2=8.745 $Y2=1.837
r155 1 3 159.06 $w=1.5e-07 $l=4.95e-07 $layer=POLY_cond $X=8.435 $Y=2.045
+ $X2=8.435 $Y2=2.54
.ends

.subckt PM_SKY130_FD_SC_HS__SDFBBN_1%A_662_82# 1 2 10 11 13 14 15 19 21 22 24 26
+ 30 31 32 35 37 38 40 43 45 46 50 52 54 57 59 65
c184 65 0 1.49471e-19 $X=4.335 $Y=1.505
c185 38 0 4.28297e-20 $X=6.04 $Y=0.18
c186 35 0 3.95129e-20 $X=10.365 $Y=2.465
c187 31 0 1.94296e-19 $X=10.28 $Y=1.295
c188 11 0 7.19434e-20 $X=4.32 $Y=1.765
r189 65 66 145.28 $w=1.7e-07 $l=1.7e-07 $layer=licon1_POLY $count=1 $X=4.335
+ $Y=1.505 $X2=4.335 $Y2=1.505
r190 62 65 9.7783 $w=3.28e-07 $l=2.8e-07 $layer=LI1_cond $X=4.055 $Y=1.505
+ $X2=4.335 $Y2=1.505
r191 58 62 4.62375 $w=1.7e-07 $l=1.65e-07 $layer=LI1_cond $X=4.055 $Y=1.67
+ $X2=4.055 $Y2=1.505
r192 58 59 18.2674 $w=1.68e-07 $l=2.8e-07 $layer=LI1_cond $X=4.055 $Y=1.67
+ $X2=4.055 $Y2=1.95
r193 57 62 4.62375 $w=1.7e-07 $l=1.65e-07 $layer=LI1_cond $X=4.055 $Y=1.34
+ $X2=4.055 $Y2=1.505
r194 56 57 11.0909 $w=1.68e-07 $l=1.7e-07 $layer=LI1_cond $X=4.055 $Y=1.17
+ $X2=4.055 $Y2=1.34
r195 55 61 4.25188 $w=1.7e-07 $l=1.25e-07 $layer=LI1_cond $X=3.73 $Y=2.035
+ $X2=3.605 $Y2=2.035
r196 54 59 6.81649 $w=1.7e-07 $l=1.20208e-07 $layer=LI1_cond $X=3.97 $Y=2.035
+ $X2=4.055 $Y2=1.95
r197 54 55 15.6578 $w=1.68e-07 $l=2.4e-07 $layer=LI1_cond $X=3.97 $Y=2.035
+ $X2=3.73 $Y2=2.035
r198 50 61 2.89128 $w=2.5e-07 $l=8.5e-08 $layer=LI1_cond $X=3.605 $Y=2.12
+ $X2=3.605 $Y2=2.035
r199 50 52 32.0379 $w=2.48e-07 $l=6.95e-07 $layer=LI1_cond $X=3.605 $Y=2.12
+ $X2=3.605 $Y2=2.815
r200 46 56 7.14316 $w=2.5e-07 $l=1.62019e-07 $layer=LI1_cond $X=3.97 $Y=1.045
+ $X2=4.055 $Y2=1.17
r201 46 48 23.7403 $w=2.48e-07 $l=5.15e-07 $layer=LI1_cond $X=3.97 $Y=1.045
+ $X2=3.455 $Y2=1.045
r202 41 43 82.0426 $w=1.5e-07 $l=1.6e-07 $layer=POLY_cond $X=6.095 $Y=2.115
+ $X2=6.255 $Y2=2.115
r203 39 40 48.5235 $w=2.05e-07 $l=1.5e-07 $layer=POLY_cond $X=6.067 $Y=1.09
+ $X2=6.067 $Y2=1.24
r204 35 45 110.782 $w=1.8e-07 $l=2.85e-07 $layer=POLY_cond $X=10.365 $Y=2.465
+ $X2=10.365 $Y2=2.18
r205 35 37 91.58 $w=1.5e-07 $l=2.85e-07 $layer=POLY_cond $X=10.365 $Y=2.465
+ $X2=10.365 $Y2=2.75
r206 33 45 415.34 $w=1.5e-07 $l=8.1e-07 $layer=POLY_cond $X=10.355 $Y=1.37
+ $X2=10.355 $Y2=2.18
r207 31 33 26.9307 $w=1.5e-07 $l=1.06066e-07 $layer=POLY_cond $X=10.28 $Y=1.295
+ $X2=10.355 $Y2=1.37
r208 31 32 261.511 $w=1.5e-07 $l=5.1e-07 $layer=POLY_cond $X=10.28 $Y=1.295
+ $X2=9.77 $Y2=1.295
r209 28 32 26.9307 $w=1.5e-07 $l=1.06066e-07 $layer=POLY_cond $X=9.695 $Y=1.22
+ $X2=9.77 $Y2=1.295
r210 28 30 179.468 $w=1.5e-07 $l=3.5e-07 $layer=POLY_cond $X=9.695 $Y=1.22
+ $X2=9.695 $Y2=0.87
r211 27 30 315.351 $w=1.5e-07 $l=6.15e-07 $layer=POLY_cond $X=9.695 $Y=0.255
+ $X2=9.695 $Y2=0.87
r212 24 43 2.83073 $w=1.5e-07 $l=7.5e-08 $layer=POLY_cond $X=6.255 $Y=2.19
+ $X2=6.255 $Y2=2.115
r213 24 26 126.927 $w=1.5e-07 $l=3.95e-07 $layer=POLY_cond $X=6.255 $Y=2.19
+ $X2=6.255 $Y2=2.585
r214 23 38 20.4101 $w=1.5e-07 $l=7.5e-08 $layer=POLY_cond $X=6.115 $Y=0.18
+ $X2=6.04 $Y2=0.18
r215 22 27 26.9307 $w=1.5e-07 $l=1.06066e-07 $layer=POLY_cond $X=9.62 $Y=0.18
+ $X2=9.695 $Y2=0.255
r216 22 23 1797.24 $w=1.5e-07 $l=3.505e-06 $layer=POLY_cond $X=9.62 $Y=0.18
+ $X2=6.115 $Y2=0.18
r217 21 41 2.83073 $w=1.5e-07 $l=7.5e-08 $layer=POLY_cond $X=6.095 $Y=2.04
+ $X2=6.095 $Y2=2.115
r218 21 40 410.213 $w=1.5e-07 $l=8e-07 $layer=POLY_cond $X=6.095 $Y=2.04
+ $X2=6.095 $Y2=1.24
r219 19 39 146.138 $w=1.5e-07 $l=2.85e-07 $layer=POLY_cond $X=6.04 $Y=0.805
+ $X2=6.04 $Y2=1.09
r220 16 38 5.30422 $w=1.5e-07 $l=7.5e-08 $layer=POLY_cond $X=6.04 $Y=0.255
+ $X2=6.04 $Y2=0.18
r221 16 19 282.021 $w=1.5e-07 $l=5.5e-07 $layer=POLY_cond $X=6.04 $Y=0.255
+ $X2=6.04 $Y2=0.805
r222 14 38 20.4101 $w=1.5e-07 $l=7.5e-08 $layer=POLY_cond $X=5.965 $Y=0.18
+ $X2=6.04 $Y2=0.18
r223 14 15 835.809 $w=1.5e-07 $l=1.63e-06 $layer=POLY_cond $X=5.965 $Y=0.18
+ $X2=4.335 $Y2=0.18
r224 11 66 54.0414 $w=2.96e-07 $l=2.67395e-07 $layer=POLY_cond $X=4.32 $Y=1.765