* File: sky130_fd_sc_hs__dlrbn_2.pex.spice
* Created: Thu Aug 27 20:41:00 2020
* Program "Calibre xRC"
* Version "v2018.4_34.26"
* Nominal Temperature: 27C
* Circuit Temperature: 27C
* 
.subckt PM_SKY130_FD_SC_HS__DLRBN_2%D 2 5 7 9 10 13
c35 7 0 1.53455e-19 $X=0.505 $Y=2.045
r36 13 15 46.3065 $w=3.4e-07 $l=1.65e-07 $layer=POLY_cond $X=0.585 $Y=1.425
+ $X2=0.585 $Y2=1.26
r37 13 14 72.64 $w=1.7e-07 $l=3.4e-07 $layer=licon1_POLY $count=2 $X=0.59
+ $Y=1.425 $X2=0.59 $Y2=1.425
r38 10 14 2.32075 $w=6.68e-07 $l=1.3e-07 $layer=LI1_cond $X=0.72 $Y=1.595
+ $X2=0.59 $Y2=1.595
r39 7 9 159.06 $w=1.5e-07 $l=4.95e-07 $layer=POLY_cond $X=0.505 $Y=2.045
+ $X2=0.505 $Y2=2.54
r40 5 15 217.926 $w=1.5e-07 $l=4.25e-07 $layer=POLY_cond $X=0.495 $Y=0.835
+ $X2=0.495 $Y2=1.26
r41 2 7 49.9527 $w=2.75e-07 $l=3.22529e-07 $layer=POLY_cond $X=0.585 $Y=1.76
+ $X2=0.505 $Y2=2.045
r42 1 13 0.848592 $w=3.4e-07 $l=5e-09 $layer=POLY_cond $X=0.585 $Y=1.43
+ $X2=0.585 $Y2=1.425
r43 1 2 56.007 $w=3.4e-07 $l=3.3e-07 $layer=POLY_cond $X=0.585 $Y=1.43 $X2=0.585
+ $Y2=1.76
.ends

.subckt PM_SKY130_FD_SC_HS__DLRBN_2%GATE_N 3 5 7 10 11 14 15
r38 14 15 72.64 $w=1.7e-07 $l=3.4e-07 $layer=licon1_POLY $count=2 $X=1.13
+ $Y=1.425 $X2=1.13 $Y2=1.425
r39 11 15 8.92214 $w=3.08e-07 $l=2.4e-07 $layer=LI1_cond $X=1.13 $Y=1.665
+ $X2=1.13 $Y2=1.425
r40 10 14 59.4528 $w=3.3e-07 $l=3.4e-07 $layer=POLY_cond $X=1.13 $Y=1.765
+ $X2=1.13 $Y2=1.425
r41 9 14 41.3509 $w=3.3e-07 $l=1.65e-07 $layer=POLY_cond $X=1.13 $Y=1.26
+ $X2=1.13 $Y2=1.425
r42 5 10 50.3582 $w=2.68e-07 $l=3.06268e-07 $layer=POLY_cond $X=1.185 $Y=2.045
+ $X2=1.13 $Y2=1.765
r43 5 7 159.06 $w=1.5e-07 $l=4.95e-07 $layer=POLY_cond $X=1.185 $Y=2.045
+ $X2=1.185 $Y2=2.54
r44 3 9 266.638 $w=1.5e-07 $l=5.2e-07 $layer=POLY_cond $X=1.075 $Y=0.74
+ $X2=1.075 $Y2=1.26
.ends

.subckt PM_SKY130_FD_SC_HS__DLRBN_2%A_230_74# 1 2 9 11 12 14 17 18 20 22 23 26
+ 27 30 32 33 34 37 41 48 49 53 57 63 66 69
c149 63 0 4.17599e-20 $X=3.365 $Y=1.285
c150 53 0 9.56297e-20 $X=2.285 $Y=1.385
c151 37 0 1.2913e-19 $X=4 $Y=2.215
c152 32 0 1.09527e-19 $X=3.24 $Y=1.97
c153 27 0 1.15905e-19 $X=3.155 $Y=1.215
r154 63 69 46.2115 $w=3.3e-07 $l=1.65e-07 $layer=POLY_cond $X=3.365 $Y=1.285
+ $X2=3.365 $Y2=1.12
r155 62 64 8.55446 $w=3.73e-07 $l=1.65e-07 $layer=LI1_cond $X=3.342 $Y=1.285
+ $X2=3.342 $Y2=1.45
r156 62 63 145.28 $w=1.7e-07 $l=1.7e-07 $layer=licon1_POLY $count=1 $X=3.365
+ $Y=1.285 $X2=3.365 $Y2=1.285
r157 55 57 9.45989 $w=1.68e-07 $l=1.45e-07 $layer=LI1_cond $X=3.095 $Y=2.055
+ $X2=3.24 $Y2=2.055
r158 53 67 40.7727 $w=3.5e-07 $l=1.65e-07 $layer=POLY_cond $X=2.275 $Y=1.385
+ $X2=2.275 $Y2=1.55
r159 53 66 46.4315 $w=3.5e-07 $l=1.65e-07 $layer=POLY_cond $X=2.275 $Y=1.385
+ $X2=2.275 $Y2=1.22
r160 52 54 8.47192 $w=3.38e-07 $l=1.65e-07 $layer=LI1_cond $X=2.305 $Y=1.385
+ $X2=2.305 $Y2=1.55
r161 52 53 145.28 $w=1.7e-07 $l=1.7e-07 $layer=licon1_POLY $count=1 $X=2.285
+ $Y=1.385 $X2=2.285 $Y2=1.385
r162 49 52 5.76222 $w=3.38e-07 $l=1.7e-07 $layer=LI1_cond $X=2.305 $Y=1.215
+ $X2=2.305 $Y2=1.385
r163 47 48 6.145 $w=3.78e-07 $l=8.5e-08 $layer=LI1_cond $X=1.54 $Y=2.29
+ $X2=1.625 $Y2=2.29
r164 45 47 3.94257 $w=3.78e-07 $l=1.3e-07 $layer=LI1_cond $X=1.41 $Y=2.29
+ $X2=1.54 $Y2=2.29
r165 41 43 19.325 $w=4.98e-07 $l=5.75e-07 $layer=LI1_cond $X=1.375 $Y=0.515
+ $X2=1.375 $Y2=1.09
r166 37 38 145.28 $w=1.7e-07 $l=1.7e-07 $layer=licon1_POLY $count=1 $X=4
+ $Y=2.215 $X2=4 $Y2=2.215
r167 35 37 24.0965 $w=3.28e-07 $l=6.9e-07 $layer=LI1_cond $X=4 $Y=2.905 $X2=4
+ $Y2=2.215
r168 33 35 7.76618 $w=1.7e-07 $l=2.03101e-07 $layer=LI1_cond $X=3.835 $Y=2.99
+ $X2=4 $Y2=2.905
r169 33 34 42.7326 $w=1.68e-07 $l=6.55e-07 $layer=LI1_cond $X=3.835 $Y=2.99
+ $X2=3.18 $Y2=2.99
r170 32 57 0.716491 $w=1.7e-07 $l=8.5e-08 $layer=LI1_cond $X=3.24 $Y=1.97
+ $X2=3.24 $Y2=2.055
r171 32 64 33.9251 $w=1.68e-07 $l=5.2e-07 $layer=LI1_cond $X=3.24 $Y=1.97
+ $X2=3.24 $Y2=1.45
r172 30 34 6.81649 $w=1.7e-07 $l=1.20208e-07 $layer=LI1_cond $X=3.095 $Y=2.905
+ $X2=3.18 $Y2=2.99
r173 29 55 0.716491 $w=1.7e-07 $l=8.5e-08 $layer=LI1_cond $X=3.095 $Y=2.14
+ $X2=3.095 $Y2=2.055
r174 29 30 49.9091 $w=1.68e-07 $l=7.65e-07 $layer=LI1_cond $X=3.095 $Y=2.14
+ $X2=3.095 $Y2=2.905
r175 28 49 4.80115 $w=1.7e-07 $l=1.7e-07 $layer=LI1_cond $X=2.475 $Y=1.215
+ $X2=2.305 $Y2=1.215
r176 27 62 2.15123 $w=3.73e-07 $l=7e-08 $layer=LI1_cond $X=3.342 $Y=1.215
+ $X2=3.342 $Y2=1.285
r177 27 28 44.3636 $w=1.68e-07 $l=6.8e-07 $layer=LI1_cond $X=3.155 $Y=1.215
+ $X2=2.475 $Y2=1.215
r178 26 54 38.492 $w=1.68e-07 $l=5.9e-07 $layer=LI1_cond $X=2.39 $Y=2.14
+ $X2=2.39 $Y2=1.55
r179 23 26 6.81649 $w=1.7e-07 $l=1.20208e-07 $layer=LI1_cond $X=2.305 $Y=2.225
+ $X2=2.39 $Y2=2.14
r180 23 48 44.3636 $w=1.68e-07 $l=6.8e-07 $layer=LI1_cond $X=2.305 $Y=2.225
+ $X2=1.625 $Y2=2.225
r181 22 47 5.46774 $w=1.7e-07 $l=1.9e-07 $layer=LI1_cond $X=1.54 $Y=2.1 $X2=1.54
+ $Y2=2.29
r182 22 43 65.8931 $w=1.68e-07 $l=1.01e-06 $layer=LI1_cond $X=1.54 $Y=2.1
+ $X2=1.54 $Y2=1.09
r183 18 38 50.1894 $w=3.66e-07 $l=3.02903e-07 $layer=POLY_cond $X=3.84 $Y=2.465
+ $X2=3.957 $Y2=2.215
r184 18 20 91.58 $w=1.5e-07 $l=2.85e-07 $layer=POLY_cond $X=3.84 $Y=2.465
+ $X2=3.84 $Y2=2.75
r185 17 69 138.173 $w=1.5e-07 $l=4.3e-07 $layer=POLY_cond $X=3.275 $Y=0.69
+ $X2=3.275 $Y2=1.12
r186 12 14 159.06 $w=1.5e-07 $l=4.95e-07 $layer=POLY_cond $X=2.28 $Y=1.885
+ $X2=2.28 $Y2=2.38
r187 11 12 36.0588 $w=1.8e-07 $l=9e-08 $layer=POLY_cond $X=2.28 $Y=1.795
+ $X2=2.28 $Y2=1.885
r188 11 67 95.2339 $w=1.8e-07 $l=2.45e-07 $layer=POLY_cond $X=2.28 $Y=1.795
+ $X2=2.28 $Y2=1.55
r189 9 66 154.24 $w=1.5e-07 $l=4.8e-07 $layer=POLY_cond $X=2.175 $Y=0.74
+ $X2=2.175 $Y2=1.22
r190 2 45 600 $w=1.7e-07 $l=2.33238e-07 $layer=licon1_PDIFF $count=1 $X=1.26
+ $Y=2.12 $X2=1.41 $Y2=2.29
r191 1 41 91 $w=1.7e-07 $l=2.03286e-07 $layer=licon1_NDIFF $count=2 $X=1.15
+ $Y=0.37 $X2=1.29 $Y2=0.515
.ends

.subckt PM_SKY130_FD_SC_HS__DLRBN_2%A_27_112# 1 2 9 11 13 14 18 21 24 25 26 27
+ 30 31 33 34 39
c103 39 0 2.18845e-19 $X=2.825 $Y=1.635
c104 30 0 1.27488e-19 $X=2.745 $Y=2.48
c105 18 0 1.53455e-19 $X=0.17 $Y=2.1
c106 9 0 4.2215e-20 $X=2.885 $Y=0.69
r107 39 42 8.46017 $w=3.23e-07 $l=1.65e-07 $layer=LI1_cond $X=2.822 $Y=1.635
+ $X2=2.822 $Y2=1.8
r108 39 40 145.28 $w=1.7e-07 $l=1.7e-07 $layer=licon1_POLY $count=1 $X=2.825
+ $Y=1.635 $X2=2.825 $Y2=1.635
r109 34 36 11.0909 $w=1.68e-07 $l=1.7e-07 $layer=LI1_cond $X=1.88 $Y=2.565
+ $X2=1.88 $Y2=2.735
r110 30 42 44.3636 $w=1.68e-07 $l=6.8e-07 $layer=LI1_cond $X=2.745 $Y=2.48
+ $X2=2.745 $Y2=1.8
r111 28 34 0.716491 $w=1.7e-07 $l=8.5e-08 $layer=LI1_cond $X=1.965 $Y=2.565
+ $X2=1.88 $Y2=2.565
r112 27 30 6.81649 $w=1.7e-07 $l=1.20208e-07 $layer=LI1_cond $X=2.66 $Y=2.565
+ $X2=2.745 $Y2=2.48
r113 27 28 45.3422 $w=1.68e-07 $l=6.95e-07 $layer=LI1_cond $X=2.66 $Y=2.565
+ $X2=1.965 $Y2=2.565
r114 25 36 0.716491 $w=1.7e-07 $l=8.5e-08 $layer=LI1_cond $X=1.795 $Y=2.735
+ $X2=1.88 $Y2=2.735
r115 25 26 41.754 $w=1.68e-07 $l=6.4e-07 $layer=LI1_cond $X=1.795 $Y=2.735
+ $X2=1.155 $Y2=2.735
r116 24 26 6.81649 $w=1.7e-07 $l=1.20208e-07 $layer=LI1_cond $X=1.07 $Y=2.65
+ $X2=1.155 $Y2=2.735
r117 23 24 24.7914 $w=1.68e-07 $l=3.8e-07 $layer=LI1_cond $X=1.07 $Y=2.27
+ $X2=1.07 $Y2=2.65
r118 22 33 2.98021 $w=1.7e-07 $l=1.8e-07 $layer=LI1_cond $X=0.445 $Y=2.185
+ $X2=0.265 $Y2=2.185
r119 21 23 6.81649 $w=1.7e-07 $l=1.20208e-07 $layer=LI1_cond $X=0.985 $Y=2.185
+ $X2=1.07 $Y2=2.27
r120 21 22 35.2299 $w=1.68e-07 $l=5.4e-07 $layer=LI1_cond $X=0.985 $Y=2.185
+ $X2=0.445 $Y2=2.185
r121 18 33 3.52026 $w=2.65e-07 $l=1.30767e-07 $layer=LI1_cond $X=0.17 $Y=2.1
+ $X2=0.265 $Y2=2.185
r122 18 31 65.8931 $w=1.68e-07 $l=1.01e-06 $layer=LI1_cond $X=0.17 $Y=2.1
+ $X2=0.17 $Y2=1.09
r123 14 31 8.99121 $w=3.58e-07 $l=1.8e-07 $layer=LI1_cond $X=0.265 $Y=0.91
+ $X2=0.265 $Y2=1.09
r124 14 16 3.21944 $w=3.6e-07 $l=9.5e-08 $layer=LI1_cond $X=0.265 $Y=0.91
+ $X2=0.265 $Y2=0.815
r125 11 40 52.2586 $w=2.99e-07 $l=2.85044e-07 $layer=POLY_cond $X=2.9 $Y=1.885
+ $X2=2.825 $Y2=1.635
r126 11 13 184.767 $w=1.5e-07 $l=5.75e-07 $layer=POLY_cond $X=2.9 $Y=1.885
+ $X2=2.9 $Y2=2.46
r127 7 40 38.5562 $w=2.99e-07 $l=1.92678e-07 $layer=POLY_cond $X=2.885 $Y=1.47
+ $X2=2.825 $Y2=1.635
r128 7 9 399.957 $w=1.5e-07 $l=7.8e-07 $layer=POLY_cond $X=2.885 $Y=1.47
+ $X2=2.885 $Y2=0.69
r129 2 33 300 $w=1.7e-07 $l=2.05061e-07 $layer=licon1_PDIFF $count=2 $X=0.135
+ $Y=2.12 $X2=0.28 $Y2=2.265
r130 1 16 182 $w=1.7e-07 $l=3.19374e-07 $layer=licon1_NDIFF $count=1 $X=0.135
+ $Y=0.56 $X2=0.28 $Y2=0.815
.ends

.subckt PM_SKY130_FD_SC_HS__DLRBN_2%A_363_74# 1 2 7 9 10 11 14 18 21 22 25 26 30
+ 35 36
c104 36 0 1.2913e-19 $X=3.965 $Y=1.39
c105 26 0 4.2215e-20 $X=1.96 $Y=0.87
c106 25 0 5.79271e-20 $X=3.8 $Y=1.225
c107 22 0 1.49993e-19 $X=3.715 $Y=0.865
c108 14 0 1.15905e-19 $X=3.875 $Y=0.58
c109 11 0 3.06587e-19 $X=3.38 $Y=1.765
r110 35 36 145.28 $w=1.7e-07 $l=1.7e-07 $layer=licon1_POLY $count=1 $X=3.965
+ $Y=1.39 $X2=3.965 $Y2=1.39
r111 27 30 4.14879 $w=2.48e-07 $l=9e-08 $layer=LI1_cond $X=1.88 $Y=1.845
+ $X2=1.97 $Y2=1.845
r112 25 35 6.03661 $w=3.13e-07 $l=1.65e-07 $layer=LI1_cond $X=3.8 $Y=1.382
+ $X2=3.965 $Y2=1.382
r113 24 25 17.9412 $w=1.68e-07 $l=2.75e-07 $layer=LI1_cond $X=3.8 $Y=0.95
+ $X2=3.8 $Y2=1.225
r114 23 26 2.76166 $w=1.7e-07 $l=1.67481e-07 $layer=LI1_cond $X=2.125 $Y=0.865
+ $X2=1.96 $Y2=0.87
r115 22 24 6.81649 $w=1.7e-07 $l=1.20208e-07 $layer=LI1_cond $X=3.715 $Y=0.865
+ $X2=3.8 $Y2=0.95
r116 22 23 103.733 $w=1.68e-07 $l=1.59e-06 $layer=LI1_cond $X=3.715 $Y=0.865
+ $X2=2.125 $Y2=0.865
r117 21 27 2.99516 $w=1.7e-07 $l=1.25e-07 $layer=LI1_cond $X=1.88 $Y=1.72
+ $X2=1.88 $Y2=1.845
r118 20 26 3.70735 $w=2.5e-07 $l=1.23693e-07 $layer=LI1_cond $X=1.88 $Y=0.96
+ $X2=1.96 $Y2=0.87
r119 20 21 49.5829 $w=1.68e-07 $l=7.6e-07 $layer=LI1_cond $X=1.88 $Y=0.96
+ $X2=1.88 $Y2=1.72
r120 16 26 3.70735 $w=2.5e-07 $l=9e-08 $layer=LI1_cond $X=1.96 $Y=0.78 $X2=1.96
+ $Y2=0.87
r121 16 18 9.25447 $w=3.28e-07 $l=2.65e-07 $layer=LI1_cond $X=1.96 $Y=0.78
+ $X2=1.96 $Y2=0.515
r122 12 36 39.6178 $w=2.46e-07 $l=2.05122e-07 $layer=POLY_cond $X=3.875 $Y=1.225
+ $X2=3.965 $Y2=1.39
r123 12 14 330.734 $w=1.5e-07 $l=6.45e-07 $layer=POLY_cond $X=3.875 $Y=1.225
+ $X2=3.875 $Y2=0.58
r124 10 36 73.4756 $w=2.46e-07 $l=4.5e-07 $layer=POLY_cond $X=3.8 $Y=1.765
+ $X2=3.965 $Y2=1.39
r125 10 11 215.362 $w=1.5e-07 $l=4.2e-07 $layer=POLY_cond $X=3.8 $Y=1.765
+ $X2=3.38 $Y2=1.765
r126 7 11 26.9307 $w=1.5e-07 $l=1.58745e-07 $layer=POLY_cond $X=3.29 $Y=1.885
+ $X2=3.38 $Y2=1.765
r127 7 9 184.767 $w=1.5e-07 $l=5.75e-07 $layer=POLY_cond $X=3.29 $Y=1.885
+ $X2=3.29 $Y2=2.46
r128 2 30 600 $w=1.7e-07 $l=2.05061e-07 $layer=licon1_PDIFF $count=1 $X=1.825
+ $Y=1.74 $X2=1.97 $Y2=1.885
r129 1 18 91 $w=1.7e-07 $l=2.05061e-07 $layer=licon1_NDIFF $count=2 $X=1.815
+ $Y=0.37 $X2=1.96 $Y2=0.515
.ends

.subckt PM_SKY130_FD_SC_HS__DLRBN_2%A_838_48# 1 2 7 9 11 12 14 16 17 19 22 24 26
+ 28 31 33 35 38 42 44 45 51 52 54 56 59 61 69 77
c168 69 0 1.27392e-19 $X=6.79 $Y=1.485
c169 59 0 1.25688e-19 $X=6.87 $Y=2.24
c170 42 0 1.1451e-19 $X=4.45 $Y=0.94
c171 26 0 3.76498e-20 $X=6.65 $Y=1.765
c172 7 0 9.34102e-20 $X=4.265 $Y=0.865
r173 77 78 1.2359 $w=3.9e-07 $l=1e-08 $layer=POLY_cond $X=7.155 $Y=1.542
+ $X2=7.165 $Y2=1.542
r174 74 75 1.85385 $w=3.9e-07 $l=1.5e-08 $layer=POLY_cond $X=6.65 $Y=1.542
+ $X2=6.665 $Y2=1.542
r175 70 77 45.1103 $w=3.9e-07 $l=3.65e-07 $layer=POLY_cond $X=6.79 $Y=1.542
+ $X2=7.155 $Y2=1.542
r176 70 75 15.4487 $w=3.9e-07 $l=1.25e-07 $layer=POLY_cond $X=6.79 $Y=1.542
+ $X2=6.665 $Y2=1.542
r177 69 72 8.46218 $w=3.28e-07 $l=1.65e-07 $layer=LI1_cond $X=6.79 $Y=1.485
+ $X2=6.79 $Y2=1.65
r178 69 70 145.28 $w=1.7e-07 $l=1.7e-07 $layer=licon1_POLY $count=1 $X=6.79
+ $Y=1.485 $X2=6.79 $Y2=1.485
r179 66 67 3.80299 $w=4.01e-07 $l=1.25e-07 $layer=LI1_cond $X=5.435 $Y=2.2
+ $X2=5.435 $Y2=2.325
r180 65 66 6.54115 $w=4.01e-07 $l=2.15e-07 $layer=LI1_cond $X=5.435 $Y=1.985
+ $X2=5.435 $Y2=2.2
r181 61 63 19.9249 $w=5.23e-07 $l=6.15e-07 $layer=LI1_cond $X=5.137 $Y=0.515
+ $X2=5.137 $Y2=1.13
r182 59 72 38.492 $w=1.68e-07 $l=5.9e-07 $layer=LI1_cond $X=6.87 $Y=2.24
+ $X2=6.87 $Y2=1.65
r183 57 67 5.79359 $w=1.7e-07 $l=2.05e-07 $layer=LI1_cond $X=5.64 $Y=2.325
+ $X2=5.435 $Y2=2.325
r184 56 59 6.81649 $w=1.7e-07 $l=1.20208e-07 $layer=LI1_cond $X=6.785 $Y=2.325
+ $X2=6.87 $Y2=2.24
r185 56 57 74.7005 $w=1.68e-07 $l=1.145e-06 $layer=LI1_cond $X=6.785 $Y=2.325
+ $X2=5.64 $Y2=2.325
r186 52 67 3.0046 $w=4.01e-07 $l=1.03078e-07 $layer=LI1_cond $X=5.475 $Y=2.41
+ $X2=5.435 $Y2=2.325
r187 52 54 14.1436 $w=3.28e-07 $l=4.05e-07 $layer=LI1_cond $X=5.475 $Y=2.41
+ $X2=5.475 $Y2=2.815
r188 51 65 9.15896 $w=4.01e-07 $l=2.16852e-07 $layer=LI1_cond $X=5.315 $Y=1.82
+ $X2=5.435 $Y2=1.985
r189 51 63 45.016 $w=1.68e-07 $l=6.9e-07 $layer=LI1_cond $X=5.315 $Y=1.82
+ $X2=5.315 $Y2=1.13
r190 47 48 145.28 $w=1.7e-07 $l=1.7e-07 $layer=licon1_POLY $count=1 $X=4.54
+ $Y=2.2 $X2=4.54 $Y2=2.2
r191 45 66 2.43857 $w=3e-07 $l=2.05e-07 $layer=LI1_cond $X=5.23 $Y=2.2 $X2=5.435
+ $Y2=2.2
r192 45 47 26.5062 $w=2.98e-07 $l=6.9e-07 $layer=LI1_cond $X=5.23 $Y=2.2
+ $X2=4.54 $Y2=2.2
r193 40 42 94.8617 $w=1.5e-07 $l=1.85e-07 $layer=POLY_cond $X=4.265 $Y=0.94
+ $X2=4.45 $Y2=0.94
r194 36 78 25.2441 $w=1.5e-07 $l=2.22e-07 $layer=POLY_cond $X=7.165 $Y=1.32
+ $X2=7.165 $Y2=1.542
r195 36 38 323.043 $w=1.5e-07 $l=6.3e-07 $layer=POLY_cond $X=7.165 $Y=1.32
+ $X2=7.165 $Y2=0.69
r196 33 77 25.2441 $w=1.5e-07 $l=2.23e-07 $layer=POLY_cond $X=7.155 $Y=1.765
+ $X2=7.155 $Y2=1.542
r197 33 35 184.767 $w=1.5e-07 $l=5.75e-07 $layer=POLY_cond $X=7.155 $Y=1.765
+ $X2=7.155 $Y2=2.34
r198 29 75 25.2441 $w=1.5e-07 $l=2.22e-07 $layer=POLY_cond $X=6.665 $Y=1.32
+ $X2=6.665 $Y2=1.542
r199 29 31 297.404 $w=1.5e-07 $l=5.8e-07 $layer=POLY_cond $X=6.665 $Y=1.32
+ $X2=6.665 $Y2=0.74
r200 26 74 25.2441 $w=1.5e-07 $l=2.23e-07 $layer=POLY_cond $X=6.65 $Y=1.765
+ $X2=6.65 $Y2=1.542
r201 26 28 204.047 $w=1.5e-07 $l=6.35e-07 $layer=POLY_cond $X=6.65 $Y=1.765
+ $X2=6.65 $Y2=2.4
r202 25 44 6.66866 $w=1.5e-07 $l=1e-07 $layer=POLY_cond $X=6.31 $Y=1.395
+ $X2=6.21 $Y2=1.395
r203 24 74 30.126 $w=3.9e-07 $l=1.86652e-07 $layer=POLY_cond $X=6.56 $Y=1.395
+ $X2=6.65 $Y2=1.542
r204 24 25 128.191 $w=1.5e-07 $l=2.5e-07 $layer=POLY_cond $X=6.56 $Y=1.395
+ $X2=6.31 $Y2=1.395
r205 20 44 18.8402 $w=1.65e-07 $l=8.66025e-08 $layer=POLY_cond $X=6.235 $Y=1.32
+ $X2=6.21 $Y2=1.395
r206 20 22 297.404 $w=1.5e-07 $l=5.8e-07 $layer=POLY_cond $X=6.235 $Y=1.32
+ $X2=6.235 $Y2=0.74
r207 17 19 204.047 $w=1.5e-07 $l=6.35e-07 $layer=POLY_cond $X=6.2 $Y=1.765
+ $X2=6.2 $Y2=2.4
r208 16 17 36.0588 $w=1.8e-07 $l=9e-08 $layer=POLY_cond $X=6.2 $Y=1.675 $X2=6.2
+ $Y2=1.765
r209 15 44 18.8402 $w=1.65e-07 $l=7.98436e-08 $layer=POLY_cond $X=6.2 $Y=1.47
+ $X2=6.21 $Y2=1.395
r210 15 16 79.6855 $w=1.8e-07 $l=2.05e-07 $layer=POLY_cond $X=6.2 $Y=1.47
+ $X2=6.2 $Y2=1.675
r211 12 48 54.9169 $w=2.95e-07 $l=3.00167e-07 $layer=POLY_cond $X=4.465 $Y=2.465
+ $X2=4.54 $Y2=2.2
r212 12 14 91.58 $w=1.5e-07 $l=2.85e-07 $layer=POLY_cond $X=4.465 $Y=2.465
+ $X2=4.465 $Y2=2.75
r213 11 48 38.578 $w=2.95e-07 $l=2.05122e-07 $layer=POLY_cond $X=4.45 $Y=2.035
+ $X2=4.54 $Y2=2.2
r214 10 42 2.83073 $w=1.5e-07 $l=7.5e-08 $layer=POLY_cond $X=4.45 $Y=1.015
+ $X2=4.45 $Y2=0.94
r215 10 11 523.021 $w=1.5e-07 $l=1.02e-06 $layer=POLY_cond $X=4.45 $Y=1.015
+ $X2=4.45 $Y2=2.035
r216 7 40 2.83073 $w=1.5e-07 $l=7.5e-08 $layer=POLY_cond $X=4.265 $Y=0.865
+ $X2=4.265 $Y2=0.94
r217 7 9 91.58 $w=1.5e-07 $l=2.85e-07 $layer=POLY_cond $X=4.265 $Y=0.865
+ $X2=4.265 $Y2=0.58
r218 2 65 400 $w=1.7e-07 $l=2.20907e-07 $layer=licon1_PDIFF $count=1 $X=5.315
+ $Y=1.84 $X2=5.475 $Y2=1.985
r219 2 54 400 $w=1.7e-07 $l=1.05196e-06 $layer=licon1_PDIFF $count=1 $X=5.315
+ $Y=1.84 $X2=5.475 $Y2=2.815
r220 1 61 91 $w=1.7e-07 $l=2.05061e-07 $layer=licon1_NDIFF $count=2 $X=4.895
+ $Y=0.37 $X2=5.04 $Y2=0.515
.ends

.subckt PM_SKY130_FD_SC_HS__DLRBN_2%A_670_74# 1 2 7 9 12 14 15 16 22 23 25 27 28
+ 32 36 37 41 43
c109 37 0 1.50714e-19 $X=3.507 $Y=2.405
c110 23 0 4.17599e-20 $X=3.665 $Y=1.795
r111 39 41 15.984 $w=1.68e-07 $l=2.45e-07 $layer=LI1_cond $X=4.14 $Y=0.97
+ $X2=4.385 $Y2=0.97
r112 36 37 8.46257 $w=3.13e-07 $l=1.65e-07 $layer=LI1_cond $X=3.507 $Y=2.57
+ $X2=3.507 $Y2=2.405
r113 32 33 145.28 $w=1.7e-07 $l=1.7e-07 $layer=licon1_POLY $count=1 $X=4.9
+ $Y=1.515 $X2=4.9 $Y2=1.515
r114 30 32 6.91466 $w=3.23e-07 $l=1.95e-07 $layer=LI1_cond $X=4.897 $Y=1.71
+ $X2=4.897 $Y2=1.515
r115 29 43 5.16603 $w=1.7e-07 $l=8.5e-08 $layer=LI1_cond $X=4.47 $Y=1.795
+ $X2=4.385 $Y2=1.795
r116 28 30 7.72402 $w=1.7e-07 $l=2.00035e-07 $layer=LI1_cond $X=4.735 $Y=1.795
+ $X2=4.897 $Y2=1.71
r117 28 29 17.2888 $w=1.68e-07 $l=2.65e-07 $layer=LI1_cond $X=4.735 $Y=1.795
+ $X2=4.47 $Y2=1.795
r118 27 43 1.34256 $w=1.7e-07 $l=8.5e-08 $layer=LI1_cond $X=4.385 $Y=1.71
+ $X2=4.385 $Y2=1.795
r119 26 41 0.716491 $w=1.7e-07 $l=8.5e-08 $layer=LI1_cond $X=4.385 $Y=1.055
+ $X2=4.385 $Y2=0.97
r120 26 27 42.7326 $w=1.68e-07 $l=6.55e-07 $layer=LI1_cond $X=4.385 $Y=1.055
+ $X2=4.385 $Y2=1.71
r121 25 39 0.716491 $w=1.7e-07 $l=8.5e-08 $layer=LI1_cond $X=4.14 $Y=0.885
+ $X2=4.14 $Y2=0.97
r122 24 25 17.9412 $w=1.68e-07 $l=2.75e-07 $layer=LI1_cond $X=4.14 $Y=0.61
+ $X2=4.14 $Y2=0.885
r123 22 43 5.16603 $w=1.7e-07 $l=8.5e-08 $layer=LI1_cond $X=4.3 $Y=1.795
+ $X2=4.385 $Y2=1.795
r124 22 23 41.4278 $w=1.68e-07 $l=6.35e-07 $layer=LI1_cond $X=4.3 $Y=1.795
+ $X2=3.665 $Y2=1.795
r125 20 23 6.81649 $w=1.7e-07 $l=1.20208e-07 $layer=LI1_cond $X=3.58 $Y=1.88
+ $X2=3.665 $Y2=1.795
r126 20 37 34.2513 $w=1.68e-07 $l=5.25e-07 $layer=LI1_cond $X=3.58 $Y=1.88
+ $X2=3.58 $Y2=2.405
r127 16 24 7.14316 $w=2.5e-07 $l=1.62019e-07 $layer=LI1_cond $X=4.055 $Y=0.485
+ $X2=4.14 $Y2=0.61
r128 16 18 22.1269 $w=2.48e-07 $l=4.8e-07 $layer=LI1_cond $X=4.055 $Y=0.485
+ $X2=3.575 $Y2=0.485
r129 14 33 43.7153 $w=3.3e-07 $l=2.5e-07 $layer=POLY_cond $X=5.15 $Y=1.515
+ $X2=4.9 $Y2=1.515
r130 14 15 5.03009 $w=3.3e-07 $l=1.08995e-07 $layer=POLY_cond $X=5.15 $Y=1.515
+ $X2=5.24 $Y2=1.557
r131 10 15 37.0704 $w=1.5e-07 $l=2.14369e-07 $layer=POLY_cond $X=5.255 $Y=1.35
+ $X2=5.24 $Y2=1.557
r132 10 12 312.787 $w=1.5e-07 $l=6.1e-07 $layer=POLY_cond $X=5.255 $Y=1.35
+ $X2=5.255 $Y2=0.74
r133 7 15 37.0704 $w=1.5e-07 $l=2.08e-07 $layer=POLY_cond $X=5.24 $Y=1.765
+ $X2=5.24 $Y2=1.557
r134 7 9 204.047 $w=1.5e-07 $l=6.35e-07 $layer=POLY_cond $X=5.24 $Y=1.765
+ $X2=5.24 $Y2=2.4
r135 2 36 600 $w=1.7e-07 $l=6.83118e-07 $layer=licon1_PDIFF $count=1 $X=3.365
+ $Y=1.96 $X2=3.52 $Y2=2.57
r136 1 18 182 $w=1.7e-07 $l=2.92404e-07 $layer=licon1_NDIFF $count=1 $X=3.35
+ $Y=0.37 $X2=3.575 $Y2=0.525
.ends

.subckt PM_SKY130_FD_SC_HS__DLRBN_2%RESET_B 1 3 4 6 7
c36 1 0 2.4962e-20 $X=5.645 $Y=1.22
r37 10 11 145.28 $w=1.7e-07 $l=1.7e-07 $layer=licon1_POLY $count=1 $X=5.735
+ $Y=1.385 $X2=5.735 $Y2=1.385
r38 7 11 8.25398 $w=3.68e-07 $l=2.65e-07 $layer=LI1_cond $X=6 $Y=1.365 $X2=5.735
+ $Y2=1.365
r39 4 10 77.2841 $w=2.7e-07 $l=3.97115e-07 $layer=POLY_cond $X=5.7 $Y=1.765
+ $X2=5.735 $Y2=1.385
r40 4 6 204.047 $w=1.5e-07 $l=6.35e-07 $layer=POLY_cond $X=5.7 $Y=1.765 $X2=5.7
+ $Y2=2.4
r41 1 10 38.9026 $w=2.7e-07 $l=2.05122e-07 $layer=POLY_cond $X=5.645 $Y=1.22
+ $X2=5.735 $Y2=1.385
r42 1 3 154.24 $w=1.5e-07 $l=4.8e-07 $layer=POLY_cond $X=5.645 $Y=1.22 $X2=5.645
+ $Y2=0.74
.ends

.subckt PM_SKY130_FD_SC_HS__DLRBN_2%A_1446_368# 1 2 7 9 10 12 13 16 17 19 20 22
+ 25 26 29 33 39 42
c69 25 0 1.27392e-19 $X=8.075 $Y=1.385
r70 39 40 72.64 $w=1.7e-07 $l=3.4e-07 $layer=licon1_POLY $count=2 $X=8.065
+ $Y=1.385 $X2=8.065 $Y2=1.385
r71 37 42 1.34256 $w=3.3e-07 $l=1.65e-07 $layer=LI1_cond $X=7.545 $Y=1.385
+ $X2=7.38 $Y2=1.385
r72 37 39 18.1597 $w=3.28e-07 $l=5.2e-07 $layer=LI1_cond $X=7.545 $Y=1.385
+ $X2=8.065 $Y2=1.385
r73 33 35 24.795 $w=3.28e-07 $l=7.1e-07 $layer=LI1_cond $X=7.38 $Y=1.985
+ $X2=7.38 $Y2=2.695
r74 31 42 5.16603 $w=3.3e-07 $l=1.65e-07 $layer=LI1_cond $X=7.38 $Y=1.55
+ $X2=7.38 $Y2=1.385
r75 31 33 15.1913 $w=3.28e-07 $l=4.35e-07 $layer=LI1_cond $X=7.38 $Y=1.55
+ $X2=7.38 $Y2=1.985
r76 27 42 5.16603 $w=3.3e-07 $l=1.65e-07 $layer=LI1_cond $X=7.38 $Y=1.22
+ $X2=7.38 $Y2=1.385
r77 27 29 24.6204 $w=3.28e-07 $l=7.05e-07 $layer=LI1_cond $X=7.38 $Y=1.22
+ $X2=7.38 $Y2=0.515
r78 25 40 1.74861 $w=3.3e-07 $l=1e-08 $layer=POLY_cond $X=8.075 $Y=1.385
+ $X2=8.065 $Y2=1.385
r79 20 26 18.8402 $w=1.65e-07 $l=1e-07 $layer=POLY_cond $X=8.625 $Y=1.22
+ $X2=8.525 $Y2=1.22
r80 20 22 154.24 $w=1.5e-07 $l=4.8e-07 $layer=POLY_cond $X=8.625 $Y=1.22
+ $X2=8.625 $Y2=0.74
r81 17 19 204.047 $w=1.5e-07 $l=6.35e-07 $layer=POLY_cond $X=8.615 $Y=1.765
+ $X2=8.615 $Y2=2.4
r82 16 17 36.0588 $w=1.8e-07 $l=9e-08 $layer=POLY_cond $X=8.615 $Y=1.675
+ $X2=8.615 $Y2=1.765
r83 15 26 18.8402 $w=1.65e-07 $l=2.81425e-07 $layer=POLY_cond $X=8.615 $Y=1.46
+ $X2=8.525 $Y2=1.22
r84 15 16 83.5726 $w=1.8e-07 $l=2.15e-07 $layer=POLY_cond $X=8.615 $Y=1.46
+ $X2=8.615 $Y2=1.675
r85 14 25 26.7778 $w=1.62e-07 $l=9e-08 $layer=POLY_cond $X=8.165 $Y=1.295
+ $X2=8.165 $Y2=1.385
r86 13 26 6.66866 $w=1.5e-07 $l=7.5e-08 $layer=POLY_cond $X=8.525 $Y=1.295
+ $X2=8.525 $Y2=1.22
r87 13 14 151.266 $w=1.5e-07 $l=2.95e-07 $layer=POLY_cond $X=8.525 $Y=1.295
+ $X2=8.23 $Y2=1.295
r88 10 25 113.403 $w=1.62e-07 $l=3.8e-07 $layer=POLY_cond $X=8.165 $Y=1.765
+ $X2=8.165 $Y2=1.385
r89 10 12 204.047 $w=1.5e-07 $l=6.35e-07 $layer=POLY_cond $X=8.165 $Y=1.765
+ $X2=8.165 $Y2=2.4
r90 7 14 22.6565 $w=1.62e-07 $l=7.98436e-08 $layer=POLY_cond $X=8.155 $Y=1.22
+ $X2=8.165 $Y2=1.295
r91 7 9 154.24 $w=1.5e-07 $l=4.8e-07 $layer=POLY_cond $X=8.155 $Y=1.22 $X2=8.155
+ $Y2=0.74
r92 2 35 400 $w=1.7e-07 $l=9.26971e-07 $layer=licon1_PDIFF $count=1 $X=7.23
+ $Y=1.84 $X2=7.38 $Y2=2.695
r93 2 33 400 $w=1.7e-07 $l=2.10357e-07 $layer=licon1_PDIFF $count=1 $X=7.23
+ $Y=1.84 $X2=7.38 $Y2=1.985
r94 1 29 91 $w=1.7e-07 $l=2.03286e-07 $layer=licon1_NDIFF $count=2 $X=7.24
+ $Y=0.37 $X2=7.38 $Y2=0.515
.ends

.subckt PM_SKY130_FD_SC_HS__DLRBN_2%VPWR 1 2 3 4 5 6 7 26 30 34 38 42 46 48 53
+ 54 55 57 65 70 79 83 89 92 95 104 107 111
r117 110 111 9.3 $w=1.7e-07 $l=1.7e-07 $layer=mcon $count=1 $X=8.88 $Y=3.33
+ $X2=8.88 $Y2=3.33
r118 107 108 9.3 $w=1.7e-07 $l=1.7e-07 $layer=mcon $count=1 $X=7.92 $Y=3.33
+ $X2=7.92 $Y2=3.33
r119 104 105 9.3 $w=1.7e-07 $l=1.7e-07 $layer=mcon $count=1 $X=6 $Y=3.33 $X2=6
+ $Y2=3.33
r120 92 93 9.3 $w=1.7e-07 $l=1.7e-07 $layer=mcon $count=1 $X=2.64 $Y=3.33
+ $X2=2.64 $Y2=3.33
r121 89 90 4.65 $w=1.7e-07 $l=3.4e-07 $layer=mcon $count=2 $X=0.72 $Y=3.33
+ $X2=0.72 $Y2=3.33
r122 87 111 0.133793 $w=4.9e-07 $l=4.8e-07 $layer=MET1_cond $X=8.4 $Y=3.33
+ $X2=8.88 $Y2=3.33
r123 87 108 0.133793 $w=4.9e-07 $l=4.8e-07 $layer=MET1_cond $X=8.4 $Y=3.33
+ $X2=7.92 $Y2=3.33
r124 86 87 9.3 $w=1.7e-07 $l=1.7e-07 $layer=mcon $count=1 $X=8.4 $Y=3.33 $X2=8.4
+ $Y2=3.33
r125 84 107 7.02821 $w=1.7e-07 $l=1.25e-07 $layer=LI1_cond $X=8.025 $Y=3.33
+ $X2=7.9 $Y2=3.33
r126 84 86 24.4652 $w=1.68e-07 $l=3.75e-07 $layer=LI1_cond $X=8.025 $Y=3.33
+ $X2=8.4 $Y2=3.33
r127 83 110 4.01252 $w=1.7e-07 $l=1.82e-07 $layer=LI1_cond $X=8.755 $Y=3.33
+ $X2=8.937 $Y2=3.33
r128 83 86 23.1604 $w=1.68e-07 $l=3.55e-07 $layer=LI1_cond $X=8.755 $Y=3.33
+ $X2=8.4 $Y2=3.33
r129 82 108 0.133793 $w=4.9e-07 $l=4.8e-07 $layer=MET1_cond $X=7.44 $Y=3.33
+ $X2=7.92 $Y2=3.33
r130 81 82 4.65 $w=1.7e-07 $l=3.4e-07 $layer=mcon $count=2 $X=7.44 $Y=3.33
+ $X2=7.44 $Y2=3.33
r131 79 107 7.02821 $w=1.7e-07 $l=1.25e-07 $layer=LI1_cond $X=7.775 $Y=3.33
+ $X2=7.9 $Y2=3.33
r132 79 81 21.8556 $w=1.68e-07 $l=3.35e-07 $layer=LI1_cond $X=7.775 $Y=3.33
+ $X2=7.44 $Y2=3.33
r133 78 82 0.267585 $w=4.9e-07 $l=9.6e-07 $layer=MET1_cond $X=6.48 $Y=3.33
+ $X2=7.44 $Y2=3.33
r134 78 105 0.133793 $w=4.9e-07 $l=4.8e-07 $layer=MET1_cond $X=6.48 $Y=3.33
+ $X2=6 $Y2=3.33
r135 77 78 9.3 $w=1.7e-07 $l=1.7e-07 $layer=mcon $count=1 $X=6.48 $Y=3.33
+ $X2=6.48 $Y2=3.33
r136 75 104 8.61065 $w=1.7e-07 $l=1.65e-07 $layer=LI1_cond $X=6.14 $Y=3.33
+ $X2=5.975 $Y2=3.33
r137 75 77 22.1818 $w=1.68e-07 $l=3.4e-07 $layer=LI1_cond $X=6.14 $Y=3.33
+ $X2=6.48 $Y2=3.33
r138 74 105 0.133793 $w=4.9e-07 $l=4.8e-07 $layer=MET1_cond $X=5.52 $Y=3.33
+ $X2=6 $Y2=3.33
r139 74 101 0.133793 $w=4.9e-07 $l=4.8e-07 $layer=MET1_cond $X=5.52 $Y=3.33
+ $X2=5.04 $Y2=3.33
r140 73 74 9.3 $w=1.7e-07 $l=1.7e-07 $layer=mcon $count=1 $X=5.52 $Y=3.33
+ $X2=5.52 $Y2=3.33
r141 71 73 24.7914 $w=1.68e-07 $l=3.8e-07 $layer=LI1_cond $X=5.14 $Y=3.33
+ $X2=5.52 $Y2=3.33
r142 70 104 8.61065 $w=1.7e-07 $l=1.65e-07 $layer=LI1_cond $X=5.81 $Y=3.33
+ $X2=5.975 $Y2=3.33
r143 70 73 18.9198 $w=1.68e-07 $l=2.9e-07 $layer=LI1_cond $X=5.81 $Y=3.33
+ $X2=5.52 $Y2=3.33
r144 69 93 0.133793 $w=4.9e-07 $l=4.8e-07 $layer=MET1_cond $X=3.12 $Y=3.33
+ $X2=2.64 $Y2=3.33
r145 68 69 4.65 $w=1.7e-07 $l=3.4e-07 $layer=mcon $count=2 $X=3.12 $Y=3.33
+ $X2=3.12 $Y2=3.33
r146 66 92 8.61065 $w=1.7e-07 $l=1.65e-07 $layer=LI1_cond $X=2.755 $Y=3.33
+ $X2=2.59 $Y2=3.33
r147 66 68 23.8128 $w=1.68e-07 $l=3.65e-07 $layer=LI1_cond $X=2.755 $Y=3.33
+ $X2=3.12 $Y2=3.33
r148 65 71 8.47627 $w=1.7e-07 $l=3.08e-07 $layer=LI1_cond $X=4.832 $Y=3.33
+ $X2=5.14 $Y2=3.33
r149 65 101 9.3 $w=1.7e-07 $l=1.7e-07 $layer=mcon $count=1 $X=5.04 $Y=3.33
+ $X2=5.04 $Y2=3.33
r150 65 95 10.0159 $w=6.13e-07 $l=5.15e-07 $layer=LI1_cond $X=4.832 $Y=3.33
+ $X2=4.832 $Y2=2.815
r151 65 68 91.6631 $w=1.68e-07 $l=1.405e-06 $layer=LI1_cond $X=4.525 $Y=3.33
+ $X2=3.12 $Y2=3.33
r152 64 93 0.133793 $w=4.9e-07 $l=4.8e-07 $layer=MET1_cond $X=2.16 $Y=3.33
+ $X2=2.64 $Y2=3.33
r153 63 64 6.2 $w=1.7e-07 $l=2.55e-07 $layer=mcon $count=1 $X=2.16 $Y=3.33
+ $X2=2.16 $Y2=3.33
r154 61 64 0.267585 $w=4.9e-07 $l=9.6e-07 $layer=MET1_cond $X=1.2 $Y=3.33
+ $X2=2.16 $Y2=3.33
r155 61 90 0.133793 $w=4.9e-07 $l=4.8e-07 $layer=MET1_cond $X=1.2 $Y=3.33
+ $X2=0.72 $Y2=3.33
r156 60 63 62.631 $w=1.68e-07 $l=9.6e-07 $layer=LI1_cond $X=1.2 $Y=3.33 $X2=2.16
+ $Y2=3.33
r157 60 61 6.2 $w=1.7e-07 $l=2.55e-07 $layer=mcon $count=1 $X=1.2 $Y=3.33
+ $X2=1.2 $Y2=3.33
r158 58 89 5.16603 $w=1.7e-07 $l=8.5e-08 $layer=LI1_cond $X=0.815 $Y=3.33
+ $X2=0.73 $Y2=3.33
r159 58 60 25.1176 $w=1.68e-07 $l=3.85e-07 $layer=LI1_cond $X=0.815 $Y=3.33
+ $X2=1.2 $Y2=3.33
r160 57 92 8.61065 $w=1.7e-07 $l=1.65e-07 $layer=LI1_cond $X=2.425 $Y=3.33
+ $X2=2.59 $Y2=3.33
r161 57 63 17.2888 $w=1.68e-07 $l=2.65e-07 $layer=LI1_cond $X=2.425 $Y=3.33
+ $X2=2.16 $Y2=3.33
r162 55 101 0.133793 $w=4.9e-07 $l=4.8e-07 $layer=MET1_cond $X=4.56 $Y=3.33
+ $X2=5.04 $Y2=3.33
r163 55 69 0.401378 $w=4.9e-07 $l=1.44e-06 $layer=MET1_cond $X=4.56 $Y=3.33
+ $X2=3.12 $Y2=3.33
r164 55 65 4.65 $w=1.7e-07 $l=3.4e-07 $layer=mcon $count=2 $X=4.56 $Y=3.33
+ $X2=4.56 $Y2=3.33
r165 53 77 15.0053 $w=1.68e-07 $l=2.3e-07 $layer=LI1_cond $X=6.71 $Y=3.33
+ $X2=6.48 $Y2=3.33
r166 53 54 8.61065 $w=1.7e-07 $l=1.65e-07 $layer=LI1_cond $X=6.71 $Y=3.33
+ $X2=6.875 $Y2=3.33
r167 52 81 26.0963 $w=1.68e-07 $l=4e-07 $layer=LI1_cond $X=7.04 $Y=3.33 $X2=7.44
+ $Y2=3.33
r168 52 54 8.61065 $w=1.7e-07 $l=1.65e-07 $layer=LI1_cond $X=7.04 $Y=3.33
+ $X2=6.875 $Y2=3.33
r169 48 51 38.2611 $w=2.48e-07 $l=8.3e-07 $layer=LI1_cond $X=8.88 $Y=1.985
+ $X2=8.88 $Y2=2.815
r170 46 110 3.13065 $w=2.5e-07 $l=1.09864e-07 $layer=LI1_cond $X=8.88 $Y=3.245
+ $X2=8.937 $Y2=3.33
r171 46 51 19.822 $w=2.48e-07 $l=4.3e-07 $layer=LI1_cond $X=8.88 $Y=3.245
+ $X2=8.88 $Y2=2.815
r172 42 45 38.2611 $w=2.48e-07 $l=8.3e-07 $layer=LI1_cond $X=7.9 $Y=1.985
+ $X2=7.9 $Y2=2.815
r173 40 107 0.00168595 $w=2.5e-07 $l=8.5e-08 $layer=LI1_cond $X=7.9 $Y=3.245
+ $X2=7.9 $Y2=3.33
r174 40 45 19.822 $w=2.48e-07 $l=4.3e-07 $layer=LI1_cond $X=7.9 $Y=3.245 $X2=7.9
+ $Y2=2.815
r175 36 54 0.89609 $w=3.3e-07 $l=8.5e-08 $layer=LI1_cond $X=6.875 $Y=3.245
+ $X2=6.875 $Y2=3.33
r176 36 38 19.7312 $w=3.28e-07 $l=5.65e-07 $layer=LI1_cond $X=6.875 $Y=3.245
+ $X2=6.875 $Y2=2.68
r177 32 104 0.89609 $w=3.3e-07 $l=8.5e-08 $layer=LI1_cond $X=5.975 $Y=3.245
+ $X2=5.975 $Y2=3.33
r178 32 34 16.239 $w=3.28e-07 $l=4.65e-07 $layer=LI1_cond $X=5.975 $Y=3.245
+ $X2=5.975 $Y2=2.78
r179 28 92 0.89609 $w=3.3e-07 $l=8.5e-08 $layer=LI1_cond $X=2.59 $Y=3.245
+ $X2=2.59 $Y2=3.33
r180 28 30 9.07985 $w=3.28e-07 $l=2.6e-07 $layer=LI1_cond $X=2.59 $Y=3.245
+ $X2=2.59 $Y2=2.985
r181 24 89 1.34256 $w=1.7e-07 $l=8.5e-08 $layer=LI1_cond $X=0.73 $Y=3.245
+ $X2=0.73 $Y2=3.33
r182 24 26 34.9037 $w=1.68e-07 $l=5.35e-07 $layer=LI1_cond $X=0.73 $Y=3.245
+ $X2=0.73 $Y2=2.71
r183 7 51 400 $w=1.7e-07 $l=1.04732e-06 $layer=licon1_PDIFF $count=1 $X=8.69
+ $Y=1.84 $X2=8.84 $Y2=2.815
r184 7 48 400 $w=1.7e-07 $l=2.10357e-07 $layer=licon1_PDIFF $count=1 $X=8.69
+ $Y=1.84 $X2=8.84 $Y2=1.985
r185 6 45 400 $w=1.7e-07 $l=1.04499e-06 $layer=licon1_PDIFF $count=1 $X=7.795
+ $Y=1.84 $X2=7.94 $Y2=2.815
r186 6 42 400 $w=1.7e-07 $l=2.05061e-07 $layer=licon1_PDIFF $count=1 $X=7.795
+ $Y=1.84 $X2=7.94 $Y2=1.985
r187 5 38 600 $w=1.7e-07 $l=9.11921e-07 $layer=licon1_PDIFF $count=1 $X=6.725
+ $Y=1.84 $X2=6.875 $Y2=2.68
r188 4 34 600 $w=1.7e-07 $l=1.03518e-06 $layer=licon1_PDIFF $count=1 $X=5.775
+ $Y=1.84 $X2=5.975 $Y2=2.78
r189 3 95 600 $w=1.7e-07 $l=4.04784e-07 $layer=licon1_PDIFF $count=1 $X=4.54
+ $Y=2.54 $X2=4.83 $Y2=2.815
r190 2 30 600 $w=1.7e-07 $l=1.13644e-06 $layer=licon1_PDIFF $count=1 $X=2.355
+ $Y=1.96 $X2=2.59 $Y2=2.985
r191 1 26 600 $w=1.7e-07 $l=6.60757e-07 $layer=licon1_PDIFF $count=1 $X=0.58
+ $Y=2.12 $X2=0.73 $Y2=2.71
.ends

.subckt PM_SKY130_FD_SC_HS__DLRBN_2%Q 1 2 10 11 13
c32 11 0 6.26118e-20 $X=6.425 $Y=1.82
r33 13 19 9.85908 $w=3.28e-07 $l=2.05e-07 $layer=LI1_cond $X=6.45 $Y=0.925
+ $X2=6.45 $Y2=1.13
r34 11 19 45.016 $w=1.68e-07 $l=6.9e-07 $layer=LI1_cond $X=6.37 $Y=1.82 $X2=6.37
+ $Y2=1.13
r35 10 11 8.46218 $w=3.28e-07 $l=1.65e-07 $layer=LI1_cond $X=6.425 $Y=1.985
+ $X2=6.425 $Y2=1.82
r36 2 10 600 $w=1.7e-07 $l=2.10357e-07 $layer=licon1_PDIFF $count=1 $X=6.275
+ $Y=1.84 $X2=6.425 $Y2=1.985
r37 1 13 182 $w=1.7e-07 $l=6.4622e-07 $layer=licon1_NDIFF $count=1 $X=6.31
+ $Y=0.37 $X2=6.45 $Y2=0.95
.ends

.subckt PM_SKY130_FD_SC_HS__DLRBN_2%Q_N 1 2 12 14 15 16 23 32
r26 21 23 1.31708 $w=3.48e-07 $l=4e-08 $layer=LI1_cond $X=8.4 $Y=1.995 $X2=8.4
+ $Y2=2.035
r27 15 16 12.183 $w=3.48e-07 $l=3.7e-07 $layer=LI1_cond $X=8.4 $Y=2.405 $X2=8.4
+ $Y2=2.775
r28 14 21 0.75732 $w=3.48e-07 $l=2.3e-08 $layer=LI1_cond $X=8.4 $Y=1.972 $X2=8.4