* File: sky130_fd_sc_hs__mux4_4.pex.spice
* Created: Tue Sep  1 20:08:24 2020
* Program "Calibre xRC"
* Version "v2018.4_34.26"
* Nominal Temperature: 27C
* Circuit Temperature: 27C
* 
.subckt PM_SKY130_FD_SC_HS__MUX4_4%A1 3 5 7 10 12 14 15 16 24
c43 16 0 8.41401e-20 $X=0.72 $Y=1.665
r44 24 25 3.856 $w=3.75e-07 $l=3e-08 $layer=POLY_cond $X=0.925 $Y=1.667
+ $X2=0.955 $Y2=1.667
r45 22 24 25.7067 $w=3.75e-07 $l=2e-07 $layer=POLY_cond $X=0.725 $Y=1.667
+ $X2=0.925 $Y2=1.667
r46 20 22 28.2773 $w=3.75e-07 $l=2.2e-07 $layer=POLY_cond $X=0.505 $Y=1.667
+ $X2=0.725 $Y2=1.667
r47 19 20 1.28533 $w=3.75e-07 $l=1e-08 $layer=POLY_cond $X=0.495 $Y=1.667
+ $X2=0.505 $Y2=1.667
r48 16 22 72.64 $w=1.7e-07 $l=3.4e-07 $layer=licon1_POLY $count=2 $X=0.725
+ $Y=1.615 $X2=0.725 $Y2=1.615
r49 15 16 16.7628 $w=3.28e-07 $l=4.8e-07 $layer=LI1_cond $X=0.24 $Y=1.615
+ $X2=0.72 $Y2=1.615
r50 12 25 24.2915 $w=1.5e-07 $l=2.18e-07 $layer=POLY_cond $X=0.955 $Y=1.885
+ $X2=0.955 $Y2=1.667
r51 12 14 184.767 $w=1.5e-07 $l=5.75e-07 $layer=POLY_cond $X=0.955 $Y=1.885
+ $X2=0.955 $Y2=2.46
r52 8 24 24.2915 $w=1.5e-07 $l=2.17e-07 $layer=POLY_cond $X=0.925 $Y=1.45
+ $X2=0.925 $Y2=1.667
r53 8 10 256.383 $w=1.5e-07 $l=5e-07 $layer=POLY_cond $X=0.925 $Y=1.45 $X2=0.925
+ $Y2=0.95
r54 5 20 24.2915 $w=1.5e-07 $l=2.18e-07 $layer=POLY_cond $X=0.505 $Y=1.885
+ $X2=0.505 $Y2=1.667
r55 5 7 184.767 $w=1.5e-07 $l=5.75e-07 $layer=POLY_cond $X=0.505 $Y=1.885
+ $X2=0.505 $Y2=2.46
r56 1 19 24.2915 $w=1.5e-07 $l=2.17e-07 $layer=POLY_cond $X=0.495 $Y=1.45
+ $X2=0.495 $Y2=1.667
r57 1 3 256.383 $w=1.5e-07 $l=5e-07 $layer=POLY_cond $X=0.495 $Y=1.45 $X2=0.495
+ $Y2=0.95
.ends

.subckt PM_SKY130_FD_SC_HS__MUX4_4%A0 1 3 6 10 12 14 15 16 17 21 23
c62 23 0 1.04993e-19 $X=2.19 $Y=1.635
c63 10 0 7.75212e-20 $X=1.85 $Y=0.95
c64 6 0 8.41401e-20 $X=1.42 $Y=0.95
c65 1 0 9.51107e-20 $X=1.405 $Y=1.885
r66 31 32 7.06933 $w=3.75e-07 $l=5.5e-08 $layer=POLY_cond $X=1.85 $Y=1.677
+ $X2=1.905 $Y2=1.677
r67 29 31 43.7013 $w=3.75e-07 $l=3.4e-07 $layer=POLY_cond $X=1.51 $Y=1.677
+ $X2=1.85 $Y2=1.677
r68 29 30 96.8533 $w=1.7e-07 $l=2.55e-07 $layer=licon1_POLY $count=1 $X=1.51
+ $Y=1.635 $X2=1.51 $Y2=1.635
r69 27 29 11.568 $w=3.75e-07 $l=9e-08 $layer=POLY_cond $X=1.42 $Y=1.677 $X2=1.51
+ $Y2=1.677
r70 26 27 1.928 $w=3.75e-07 $l=1.5e-08 $layer=POLY_cond $X=1.405 $Y=1.677
+ $X2=1.42 $Y2=1.677
r71 21 32 12.3841 $w=3.75e-07 $l=1.08995e-07 $layer=POLY_cond $X=1.995 $Y=1.635
+ $X2=1.905 $Y2=1.677
r72 21 23 34.0979 $w=3.3e-07 $l=1.95e-07 $layer=POLY_cond $X=1.995 $Y=1.635
+ $X2=2.19 $Y2=1.635
r73 17 23 96.8533 $w=1.7e-07 $l=2.55e-07 $layer=licon1_POLY $count=1 $X=2.19
+ $Y=1.635 $X2=2.19 $Y2=1.635
r74 16 17 16.7628 $w=3.28e-07 $l=4.8e-07 $layer=LI1_cond $X=1.68 $Y=1.635
+ $X2=2.16 $Y2=1.635
r75 16 30 5.93683 $w=3.28e-07 $l=1.7e-07 $layer=LI1_cond $X=1.68 $Y=1.635
+ $X2=1.51 $Y2=1.635
r76 15 30 10.826 $w=3.28e-07 $l=3.1e-07 $layer=LI1_cond $X=1.2 $Y=1.635 $X2=1.51
+ $Y2=1.635
r77 12 32 24.2915 $w=1.5e-07 $l=2.08e-07 $layer=POLY_cond $X=1.905 $Y=1.885
+ $X2=1.905 $Y2=1.677
r78 12 14 184.767 $w=1.5e-07 $l=5.75e-07 $layer=POLY_cond $X=1.905 $Y=1.885
+ $X2=1.905 $Y2=2.46
r79 8 31 24.2915 $w=1.5e-07 $l=2.07e-07 $layer=POLY_cond $X=1.85 $Y=1.47
+ $X2=1.85 $Y2=1.677
r80 8 10 266.638 $w=1.5e-07 $l=5.2e-07 $layer=POLY_cond $X=1.85 $Y=1.47 $X2=1.85
+ $Y2=0.95
r81 4 27 24.2915 $w=1.5e-07 $l=2.07e-07 $layer=POLY_cond $X=1.42 $Y=1.47
+ $X2=1.42 $Y2=1.677
r82 4 6 266.638 $w=1.5e-07 $l=5.2e-07 $layer=POLY_cond $X=1.42 $Y=1.47 $X2=1.42
+ $Y2=0.95
r83 1 26 24.2915 $w=1.5e-07 $l=2.08e-07 $layer=POLY_cond $X=1.405 $Y=1.885
+ $X2=1.405 $Y2=1.677
r84 1 3 184.767 $w=1.5e-07 $l=5.75e-07 $layer=POLY_cond $X=1.405 $Y=1.885
+ $X2=1.405 $Y2=2.46
.ends

.subckt PM_SKY130_FD_SC_HS__MUX4_4%A_758_306# 1 2 7 9 12 14 16 19 22 23 25 26 28
+ 29 31 32 34 41 45 51 53 58 62 63 65 70
c137 53 0 1.30567e-19 $X=6.54 $Y=1.53
c138 29 0 7.8786e-20 $X=6.745 $Y=1.365
c139 19 0 1.75061e-19 $X=4.335 $Y=0.915
r140 70 71 7.01323 $w=3.78e-07 $l=5.5e-08 $layer=POLY_cond $X=6.745 $Y=1.587
+ $X2=6.8 $Y2=1.587
r141 67 68 4.46296 $w=3.78e-07 $l=3.5e-08 $layer=POLY_cond $X=6.315 $Y=1.587
+ $X2=6.35 $Y2=1.587
r142 62 63 54.4759 $w=1.68e-07 $l=8.35e-07 $layer=LI1_cond $X=5.2 $Y=1.45
+ $X2=6.035 $Y2=1.45
r143 61 62 7.06528 $w=3.28e-07 $l=1.25e-07 $layer=LI1_cond $X=5.075 $Y=1.515
+ $X2=5.2 $Y2=1.515
r144 60 61 0.104768 $w=3.28e-07 $l=3e-09 $layer=LI1_cond $X=5.072 $Y=1.515
+ $X2=5.075 $Y2=1.515
r145 58 65 31.258 $w=3.3e-07 $l=1.65e-07 $layer=POLY_cond $X=4.875 $Y=1.515
+ $X2=4.71 $Y2=1.515
r146 57 60 6.87974 $w=3.28e-07 $l=1.97e-07 $layer=LI1_cond $X=4.875 $Y=1.515
+ $X2=5.072 $Y2=1.515
r147 57 58 145.28 $w=1.7e-07 $l=1.7e-07 $layer=licon1_POLY $count=1 $X=4.875
+ $Y=1.515 $X2=4.875 $Y2=1.515
r148 54 70 26.1402 $w=3.78e-07 $l=2.05e-07 $layer=POLY_cond $X=6.54 $Y=1.587
+ $X2=6.745 $Y2=1.587
r149 54 68 24.2275 $w=3.78e-07 $l=1.9e-07 $layer=POLY_cond $X=6.54 $Y=1.587
+ $X2=6.35 $Y2=1.587
r150 53 54 72.64 $w=1.7e-07 $l=3.4e-07 $layer=licon1_POLY $count=2 $X=6.54
+ $Y=1.53 $X2=6.54 $Y2=1.53
r151 51 63 14.2244 $w=3.28e-07 $l=3.3e-07 $layer=LI1_cond $X=6.365 $Y=1.53
+ $X2=6.035 $Y2=1.53
r152 51 53 6.11144 $w=3.28e-07 $l=1.75e-07 $layer=LI1_cond $X=6.365 $Y=1.53
+ $X2=6.54 $Y2=1.53
r153 45 47 38.2611 $w=2.48e-07 $l=8.3e-07 $layer=LI1_cond $X=5.075 $Y=1.985
+ $X2=5.075 $Y2=2.815
r154 43 61 2.36532 $w=2.5e-07 $l=1.65e-07 $layer=LI1_cond $X=5.075 $Y=1.68
+ $X2=5.075 $Y2=1.515
r155 43 45 14.0598 $w=2.48e-07 $l=3.05e-07 $layer=LI1_cond $X=5.075 $Y=1.68
+ $X2=5.075 $Y2=1.985
r156 39 60 2.26808 $w=2.55e-07 $l=1.65e-07 $layer=LI1_cond $X=5.072 $Y=1.35
+ $X2=5.072 $Y2=1.515
r157 39 41 37.7369 $w=2.53e-07 $l=8.35e-07 $layer=LI1_cond $X=5.072 $Y=1.35
+ $X2=5.072 $Y2=0.515
r158 37 38 0.644385 $w=3.74e-07 $l=5e-09 $layer=POLY_cond $X=4.33 $Y=1.65
+ $X2=4.335 $Y2=1.65
r159 36 37 54.7727 $w=3.74e-07 $l=4.25e-07 $layer=POLY_cond $X=3.905 $Y=1.65
+ $X2=4.33 $Y2=1.65
r160 35 36 3.22193 $w=3.74e-07 $l=2.5e-08 $layer=POLY_cond $X=3.88 $Y=1.65
+ $X2=3.905 $Y2=1.65
r161 32 71 24.4846 $w=1.5e-07 $l=2.23e-07 $layer=POLY_cond $X=6.8 $Y=1.81
+ $X2=6.8 $Y2=1.587
r162 32 34 184.767 $w=1.5e-07 $l=5.75e-07 $layer=POLY_cond $X=6.8 $Y=1.81
+ $X2=6.8 $Y2=2.385
r163 29 70 24.4846 $w=1.5e-07 $l=2.22e-07 $layer=POLY_cond $X=6.745 $Y=1.365
+ $X2=6.745 $Y2=1.587
r164 29 31 141.387 $w=1.5e-07 $l=4.4e-07 $layer=POLY_cond $X=6.745 $Y=1.365
+ $X2=6.745 $Y2=0.925
r165 26 68 24.4846 $w=1.5e-07 $l=2.23e-07 $layer=POLY_cond $X=6.35 $Y=1.81
+ $X2=6.35 $Y2=1.587
r166 26 28 184.767 $w=1.5e-07 $l=5.75e-07 $layer=POLY_cond $X=6.35 $Y=1.81
+ $X2=6.35 $Y2=2.385
r167 23 67 24.4846 $w=1.5e-07 $l=2.22e-07 $layer=POLY_cond $X=6.315 $Y=1.365
+ $X2=6.315 $Y2=1.587
r168 23 25 141.387 $w=1.5e-07 $l=4.4e-07 $layer=POLY_cond $X=6.315 $Y=1.365
+ $X2=6.315 $Y2=0.925
r169 22 38 15.1134 $w=3.74e-07 $l=1.39155e-07 $layer=POLY_cond $X=4.42 $Y=1.547
+ $X2=4.335 $Y2=1.65
r170 22 65 65.646 $w=2.65e-07 $l=2.9e-07 $layer=POLY_cond $X=4.42 $Y=1.547
+ $X2=4.71 $Y2=1.547
r171 17 38 24.2268 $w=1.5e-07 $l=2.35e-07 $layer=POLY_cond $X=4.335 $Y=1.415
+ $X2=4.335 $Y2=1.65
r172 17 19 256.383 $w=1.5e-07 $l=5e-07 $layer=POLY_cond $X=4.335 $Y=1.415
+ $X2=4.335 $Y2=0.915
r173 14 37 24.2268 $w=1.5e-07 $l=2.35e-07 $layer=POLY_cond $X=4.33 $Y=1.885
+ $X2=4.33 $Y2=1.65
r174 14 16 184.767 $w=1.5e-07 $l=5.75e-07 $layer=POLY_cond $X=4.33 $Y=1.885
+ $X2=4.33 $Y2=2.46
r175 10 36 24.2268 $w=1.5e-07 $l=2.35e-07 $layer=POLY_cond $X=3.905 $Y=1.415
+ $X2=3.905 $Y2=1.65
r176 10 12 256.383 $w=1.5e-07 $l=5e-07 $layer=POLY_cond $X=3.905 $Y=1.415
+ $X2=3.905 $Y2=0.915
r177 7 35 24.2268 $w=1.5e-07 $l=2.35e-07 $layer=POLY_cond $X=3.88 $Y=1.885
+ $X2=3.88 $Y2=1.65
r178 7 9 184.767 $w=1.5e-07 $l=5.75e-07 $layer=POLY_cond $X=3.88 $Y=1.885
+ $X2=3.88 $Y2=2.46
r179 2 47 400 $w=1.7e-07 $l=1.04499e-06 $layer=licon1_PDIFF $count=1 $X=4.97
+ $Y=1.84 $X2=5.115 $Y2=2.815
r180 2 45 400 $w=1.7e-07 $l=2.05061e-07 $layer=licon1_PDIFF $count=1 $X=4.97
+ $Y=1.84 $X2=5.115 $Y2=1.985
r181 1 41 91 $w=1.7e-07 $l=2.05061e-07 $layer=licon1_NDIFF $count=2 $X=4.965
+ $Y=0.37 $X2=5.11 $Y2=0.515
.ends

.subckt PM_SKY130_FD_SC_HS__MUX4_4%S0 2 3 5 9 10 11 13 14 16 20 21 26 27 28 29
+ 31 32 36 38 40 43 45 47 49 51 53 54 55 57 58 59 60 64
c176 60 0 1.54503e-19 $X=8.4 $Y=1.665
c177 43 0 1.64187e-19 $X=7.605 $Y=0.925
c178 38 0 4.35777e-20 $X=7.25 $Y=1.81
c179 36 0 2.75222e-19 $X=7.175 $Y=0.925
c180 14 0 1.80171e-19 $X=3.405 $Y=1.885
r181 73 74 12.7905 $w=3.58e-07 $l=9.5e-08 $layer=POLY_cond $X=7.605 $Y=1.602
+ $X2=7.7 $Y2=1.602
r182 71 73 19.5223 $w=3.58e-07 $l=1.45e-07 $layer=POLY_cond $X=7.46 $Y=1.602
+ $X2=7.605 $Y2=1.602
r183 71 72 145.28 $w=1.7e-07 $l=1.7e-07 $layer=licon1_POLY $count=1 $X=7.46
+ $Y=1.56 $X2=7.46 $Y2=1.56
r184 69 71 28.2737 $w=3.58e-07 $l=2.1e-07 $layer=POLY_cond $X=7.25 $Y=1.602
+ $X2=7.46 $Y2=1.602
r185 68 69 10.0978 $w=3.58e-07 $l=7.5e-08 $layer=POLY_cond $X=7.175 $Y=1.602
+ $X2=7.25 $Y2=1.602
r186 66 67 72.64 $w=1.7e-07 $l=3.4e-07 $layer=licon1_POLY $count=2 $X=8.14
+ $Y=1.56 $X2=8.14 $Y2=1.56
r187 64 74 12.4942 $w=3.58e-07 $l=1.08995e-07 $layer=POLY_cond $X=7.79 $Y=1.56
+ $X2=7.7 $Y2=1.602
r188 64 66 61.2015 $w=3.3e-07 $l=3.5e-07 $layer=POLY_cond $X=7.79 $Y=1.56
+ $X2=8.14 $Y2=1.56
r189 60 67 8.8128 $w=3.38e-07 $l=2.6e-07 $layer=LI1_cond $X=8.4 $Y=1.605
+ $X2=8.14 $Y2=1.605
r190 59 67 7.45698 $w=3.38e-07 $l=2.2e-07 $layer=LI1_cond $X=7.92 $Y=1.605
+ $X2=8.14 $Y2=1.605
r191 59 72 15.5919 $w=3.38e-07 $l=4.6e-07 $layer=LI1_cond $X=7.92 $Y=1.605
+ $X2=7.46 $Y2=1.605
r192 58 72 0.677908 $w=3.38e-07 $l=2e-08 $layer=LI1_cond $X=7.44 $Y=1.605
+ $X2=7.46 $Y2=1.605
r193 57 66 2.62292 $w=3.3e-07 $l=1.5e-08 $layer=POLY_cond $X=8.155 $Y=1.56
+ $X2=8.14 $Y2=1.56
r194 52 53 60.4563 $w=1.8e-07 $l=1.5e-07 $layer=POLY_cond $X=3.432 $Y=1.31
+ $X2=3.432 $Y2=1.46
r195 50 51 60.4563 $w=1.8e-07 $l=1.5e-07 $layer=POLY_cond $X=2.957 $Y=1.31
+ $X2=2.957 $Y2=1.46
r196 49 57 32.1775 $w=3.3e-07 $l=1.98997e-07 $layer=POLY_cond $X=8.23 $Y=1.395
+ $X2=8.155 $Y2=1.56
r197 48 49 584.553 $w=1.5e-07 $l=1.14e-06 $layer=POLY_cond $X=8.23 $Y=0.255
+ $X2=8.23 $Y2=1.395
r198 45 74 23.1716 $w=1.5e-07 $l=2.08e-07 $layer=POLY_cond $X=7.7 $Y=1.81
+ $X2=7.7 $Y2=1.602
r199 45 47 184.767 $w=1.5e-07 $l=5.75e-07 $layer=POLY_cond $X=7.7 $Y=1.81
+ $X2=7.7 $Y2=2.385
r200 41 73 23.1716 $w=1.5e-07 $l=2.07e-07 $layer=POLY_cond $X=7.605 $Y=1.395
+ $X2=7.605 $Y2=1.602
r201 41 43 241 $w=1.5e-07 $l=4.7e-07 $layer=POLY_cond $X=7.605 $Y=1.395
+ $X2=7.605 $Y2=0.925
r202 38 69 23.1716 $w=1.5e-07 $l=2.08e-07 $layer=POLY_cond $X=7.25 $Y=1.81
+ $X2=7.25 $Y2=1.602
r203 38 40 184.767 $w=1.5e-07 $l=5.75e-07 $layer=POLY_cond $X=7.25 $Y=1.81
+ $X2=7.25 $Y2=2.385
r204 34 68 23.1716 $w=1.5e-07 $l=2.07e-07 $layer=POLY_cond $X=7.175 $Y=1.395
+ $X2=7.175 $Y2=1.602
r205 34 36 241 $w=1.5e-07 $l=4.7e-07 $layer=POLY_cond $X=7.175 $Y=1.395
+ $X2=7.175 $Y2=0.925
r206 33 55 20.4101 $w=1.5e-07 $l=7.5e-08 $layer=POLY_cond $X=5.4 $Y=0.18
+ $X2=5.325 $Y2=0.18
r207 32 48 26.9307 $w=1.5e-07 $l=1.06066e-07 $layer=POLY_cond $X=8.155 $Y=0.18
+ $X2=8.23 $Y2=0.255
r208 32 33 1412.67 $w=1.5e-07 $l=2.755e-06 $layer=POLY_cond $X=8.155 $Y=0.18
+ $X2=5.4 $Y2=0.18
r209 29 31 204.047 $w=1.5e-07 $l=6.35e-07 $layer=POLY_cond $X=5.34 $Y=1.765
+ $X2=5.34 $Y2=2.4
r210 28 29 36.0588 $w=1.8e-07 $l=9e-08 $layer=POLY_cond $X=5.34 $Y=1.675
+ $X2=5.34 $Y2=1.765
r211 27 56 37.1337 $w=1.8e-07 $l=9e-08 $layer=POLY_cond $X=5.34 $Y=1.275
+ $X2=5.34 $Y2=1.185
r212 27 28 155.484 $w=1.8e-07 $l=4e-07 $layer=POLY_cond $X=5.34 $Y=1.275
+ $X2=5.34 $Y2=1.675
r213 26 56 228.181 $w=1.5e-07 $l=4.45e-07 $layer=POLY_cond $X=5.325 $Y=0.74
+ $X2=5.325 $Y2=1.185
r214 23 55 5.30422 $w=1.5e-07 $l=7.5e-08 $layer=POLY_cond $X=5.325 $Y=0.255
+ $X2=5.325 $Y2=0.18
r215 23 26 248.691 $w=1.5e-07 $l=4.85e-07 $layer=POLY_cond $X=5.325 $Y=0.255
+ $X2=5.325 $Y2=0.74
r216 22 54 20.4101 $w=1.5e-07 $l=7.5e-08 $layer=POLY_cond $X=3.55 $Y=0.18
+ $X2=3.475 $Y2=0.18
r217 21 55 20.4101 $w=1.5e-07 $l=7.5e-08 $layer=POLY_cond $X=5.25 $Y=0.18
+ $X2=5.325 $Y2=0.18
r218 21 22 871.702 $w=1.5e-07 $l=1.7e-06 $layer=POLY_cond $X=5.25 $Y=0.18
+ $X2=3.55 $Y2=0.18
r219 20 52 202.543 $w=1.5e-07 $l=3.95e-07 $layer=POLY_cond $X=3.475 $Y=0.915
+ $X2=3.475 $Y2=1.31
r220 17 54 5.30422 $w=1.5e-07 $l=7.5e-08 $layer=POLY_cond $X=3.475 $Y=0.255
+ $X2=3.475 $Y2=0.18
r221 17 20 338.426 $w=1.5e-07 $l=6.6e-07 $layer=POLY_cond $X=3.475 $Y=0.255
+ $X2=3.475 $Y2=0.915
r222 14 16 184.767 $w=1.5e-07 $l=5.75e-07 $layer=POLY_cond $X=3.405 $Y=1.885
+ $X2=3.405 $Y2=2.46
r223 13 14 36.0588 $w=1.8e-07 $l=9e-08 $layer=POLY_cond $X=3.405 $Y=1.795
+ $X2=3.405 $Y2=1.885
r224 13 53 130.218 $w=1.8e-07 $l=3.35e-07 $layer=POLY_cond $X=3.405 $Y=1.795
+ $X2=3.405 $Y2=1.46
r225 10 54 20.4101 $w=1.5e-07 $l=7.5e-08 $layer=POLY_cond $X=3.4 $Y=0.18
+ $X2=3.475 $Y2=0.18
r226 10 11 166.649 $w=1.5e-07 $l=3.25e-07 $layer=POLY_cond $X=3.4 $Y=0.18
+ $X2=3.075 $Y2=0.18
r227 9 50 202.543 $w=1.5e-07 $l=3.95e-07 $layer=POLY_cond $X=3 $Y=0.915 $X2=3
+ $Y2=1.31
r228 6 11 26.9307 $w=1.5e-07 $l=1.06066e-07 $layer=POLY_cond $X=3 $Y=0.255
+ $X2=3.075 $Y2=0.18
r229 6 9 338.426 $w=1.5e-07 $l=6.6e-07 $layer=POLY_cond $X=3 $Y=0.255 $X2=3
+ $Y2=0.915
r230 3 5 184.767 $w=1.5e-07 $l=5.75e-07 $layer=POLY_cond $X=2.93 $Y=1.885
+ $X2=2.93 $Y2=2.46
r231 2 3 36.0588 $w=1.8e-07 $l=9e-08 $layer=POLY_cond $X=2.93 $Y=1.795 $X2=2.93
+ $Y2=1.885
r232 2 51 130.218 $w=1.8e-07 $l=3.35e-07 $layer=POLY_cond $X=2.93 $Y=1.795
+ $X2=2.93 $Y2=1.46
.ends

.subckt PM_SKY130_FD_SC_HS__MUX4_4%A2 2 3 5 8 11 12 14 17 19 20 30
c61 30 0 9.16034e-20 $X=9.385 $Y=1.425
c62 17 0 1.66006e-19 $X=9.385 $Y=0.69
r63 28 30 20.109 $w=3.3e-07 $l=1.15e-07 $layer=POLY_cond $X=9.27 $Y=1.425
+ $X2=9.385 $Y2=1.425
r64 28 29 72.64 $w=1.7e-07 $l=3.4e-07 $layer=licon1_POLY $count=2 $X=9.27
+ $Y=1.425 $X2=9.27 $Y2=1.425
r65 26 28 4.37153 $w=3.3e-07 $l=2.5e-08 $layer=POLY_cond $X=9.245 $Y=1.425
+ $X2=9.27 $Y2=1.425
r66 25 26 50.7098 $w=3.3e-07 $l=2.9e-07 $layer=POLY_cond $X=8.955 $Y=1.425
+ $X2=9.245 $Y2=1.425
r67 23 25 27.9778 $w=3.3e-07 $l=1.6e-07 $layer=POLY_cond $X=8.795 $Y=1.425
+ $X2=8.955 $Y2=1.425
r68 20 29 2.09023 $w=5.13e-07 $l=9e-08 $layer=LI1_cond $X=9.36 $Y=1.517 $X2=9.27
+ $Y2=1.517
r69 19 29 9.05768 $w=5.13e-07 $l=3.9e-07 $layer=LI1_cond $X=8.88 $Y=1.517
+ $X2=9.27 $Y2=1.517
r70 15 30 21.2229 $w=1.5e-07 $l=1.65e-07 $layer=POLY_cond $X=9.385 $Y=1.26
+ $X2=9.385 $Y2=1.425
r71 15 17 292.277 $w=1.5e-07 $l=5.7e-07 $layer=POLY_cond $X=9.385 $Y=1.26
+ $X2=9.385 $Y2=0.69
r72 12 14 184.767 $w=1.5e-07 $l=5.75e-07 $layer=POLY_cond $X=9.245 $Y=1.885
+ $X2=9.245 $Y2=2.46
r73 11 12 36.0588 $w=1.8e-07 $l=9e-08 $layer=POLY_cond $X=9.245 $Y=1.795
+ $X2=9.245 $Y2=1.885
r74 10 26 16.9318 $w=1.8e-07 $l=1.65e-07 $layer=POLY_cond $X=9.245 $Y=1.59
+ $X2=9.245 $Y2=1.425
r75 10 11 79.6855 $w=1.8e-07 $l=2.05e-07 $layer=POLY_cond $X=9.245 $Y=1.59
+ $X2=9.245 $Y2=1.795
r76 6 25 21.2229 $w=1.5e-07 $l=1.65e-07 $layer=POLY_cond $X=8.955 $Y=1.26
+ $X2=8.955 $Y2=1.425
r77 6 8 292.277 $w=1.5e-07 $l=5.7e-07 $layer=POLY_cond $X=8.955 $Y=1.26
+ $X2=8.955 $Y2=0.69
r78 3 5 184.767 $w=1.5e-07 $l=5.75e-07 $layer=POLY_cond $X=8.795 $Y=1.885
+ $X2=8.795 $Y2=2.46
r79 2 3 36.0588 $w=1.8e-07 $l=9e-08 $layer=POLY_cond $X=8.795 $Y=1.795 $X2=8.795
+ $Y2=1.885
r80 1 23 16.9318 $w=1.8e-07 $l=1.65e-07 $layer=POLY_cond $X=8.795 $Y=1.59
+ $X2=8.795 $Y2=1.425
r81 1 2 79.6855 $w=1.8e-07 $l=2.05e-07 $layer=POLY_cond $X=8.795 $Y=1.59
+ $X2=8.795 $Y2=1.795
.ends

.subckt PM_SKY130_FD_SC_HS__MUX4_4%A3 3 5 7 8 10 11 13 15 18 20 21 29
c56 29 0 2.71176e-20 $X=10.325 $Y=1.665
c57 8 0 1.44963e-19 $X=10.245 $Y=1.085
r58 29 30 1.24548 $w=3.87e-07 $l=1e-08 $layer=POLY_cond $X=10.325 $Y=1.665
+ $X2=10.335 $Y2=1.665
r59 27 29 9.96382 $w=3.87e-07 $l=8e-08 $layer=POLY_cond $X=10.245 $Y=1.665
+ $X2=10.325 $Y2=1.665
r60 25 27 46.0827 $w=3.87e-07 $l=3.7e-07 $layer=POLY_cond $X=9.875 $Y=1.665
+ $X2=10.245 $Y2=1.665
r61 24 25 7.47287 $w=3.87e-07 $l=6e-08 $layer=POLY_cond $X=9.815 $Y=1.665
+ $X2=9.875 $Y2=1.665
r62 21 27 72.64 $w=1.7e-07 $l=3.4e-07 $layer=licon1_POLY $count=2 $X=10.245
+ $Y=1.61 $X2=10.245 $Y2=1.61
r63 20 21 14.1436 $w=3.28e-07 $l=4.05e-07 $layer=LI1_cond $X=9.84 $Y=1.61
+ $X2=10.245 $Y2=1.61
r64 16 18 46.1489 $w=1.5e-07 $l=9e-08 $layer=POLY_cond $X=10.245 $Y=1.16
+ $X2=10.335 $Y2=1.16
r65 15 30 25.0561 $w=1.5e-07 $l=2.2e-07 $layer=POLY_cond $X=10.335 $Y=1.445
+ $X2=10.335 $Y2=1.665
r66 14 18 2.83073 $w=1.5e-07 $l=7.5e-08 $layer=POLY_cond $X=10.335 $Y=1.235
+ $X2=10.335 $Y2=1.16
r67 14 15 107.681 $w=1.5e-07 $l=2.1e-07 $layer=POLY_cond $X=10.335 $Y=1.235
+ $X2=10.335 $Y2=1.445
r68 11 29 25.0561 $w=1.5e-07 $l=2.2e-07 $layer=POLY_cond $X=10.325 $Y=1.885
+ $X2=10.325 $Y2=1.665
r69 11 13 184.767 $w=1.5e-07 $l=5.75e-07 $layer=POLY_cond $X=10.325 $Y=1.885
+ $X2=10.325 $Y2=2.46
r70 8 16 2.83073 $w=1.5e-07 $l=7.5e-08 $layer=POLY_cond $X=10.245 $Y=1.085
+ $X2=10.245 $Y2=1.16
r71 8 10 126.927 $w=1.5e-07 $l=3.95e-07 $layer=POLY_cond $X=10.245 $Y=1.085
+ $X2=10.245 $Y2=0.69
r72 5 25 25.0561 $w=1.5e-07 $l=2.2e-07 $layer=POLY_cond $X=9.875 $Y=1.885
+ $X2=9.875 $Y2=1.665
r73 5 7 184.767 $w=1.5e-07 $l=5.75e-07 $layer=POLY_cond $X=9.875 $Y=1.885
+ $X2=9.875 $Y2=2.46
r74 1 24 25.0561 $w=1.5e-07 $l=2.2e-07 $layer=POLY_cond $X=9.815 $Y=1.445
+ $X2=9.815 $Y2=1.665
r75 1 3 387.138 $w=1.5e-07 $l=7.55e-07 $layer=POLY_cond $X=9.815 $Y=1.445
+ $X2=9.815 $Y2=0.69
.ends

.subckt PM_SKY130_FD_SC_HS__MUX4_4%S1 3 6 7 9 12 15 16 18 19 21 23 25 26 28 29
+ 34 35 43 47 52 58 59 61
c125 59 0 5.98463e-20 $X=12.665 $Y=1.455
c126 47 0 2.9352e-20 $X=12.315 $Y=1.36
c127 26 0 9.39474e-20 $X=14.3 $Y=1.765
c128 19 0 1.438e-19 $X=14.21 $Y=1.37
r129 58 59 1.63907 $w=6.48e-07 $l=5.5e-08 $layer=LI1_cond $X=12.72 $Y=1.455
+ $X2=12.665 $Y2=1.455
r130 47 48 145.28 $w=1.7e-07 $l=1.7e-07 $layer=licon1_POLY $count=1 $X=12.315
+ $Y=1.36 $X2=12.315 $Y2=1.36
r131 43 61 9.28585 $w=6.48e-07 $l=1e-07 $layer=LI1_cond $X=12.735 $Y=1.455
+ $X2=12.835 $Y2=1.455
r132 43 58 0.276018 $w=6.48e-07 $l=1.5e-08 $layer=LI1_cond $X=12.735 $Y=1.455
+ $X2=12.72 $Y2=1.455
r133 43 59 0.355271 $w=5.03e-07 $l=1.5e-08 $layer=LI1_cond $X=12.65 $Y=1.527
+ $X2=12.665 $Y2=1.527
r134 43 48 7.93438 $w=5.03e-07 $l=3.35e-07 $layer=LI1_cond $X=12.65 $Y=1.527
+ $X2=12.315 $Y2=1.527
r135 41 52 29.4439 $w=3.3e-07 $l=1.65e-07 $layer=POLY_cond $X=13.705 $Y=1.385
+ $X2=13.87 $Y2=1.385
r136 40 41 145.28 $w=1.7e-07 $l=1.7e-07 $layer=licon1_POLY $count=1 $X=13.705
+ $Y=1.385 $X2=13.705 $Y2=1.385
r137 35 40 6.02816 $w=3.23e-07 $l=1.7e-07 $layer=LI1_cond $X=13.702 $Y=1.215
+ $X2=13.702 $Y2=1.385
r138 35 61 45.9947 $w=1.68e-07 $l=7.05e-07 $layer=LI1_cond $X=13.54 $Y=1.215
+ $X2=12.835 $Y2=1.215
r139 32 33 14.7551 $w=2.94e-07 $l=9e-08 $layer=POLY_cond $X=11.945 $Y=1.36
+ $X2=12.035 $Y2=1.36
r140 31 32 67.2177 $w=2.94e-07 $l=4.1e-07 $layer=POLY_cond $X=11.535 $Y=1.36
+ $X2=11.945 $Y2=1.36
r141 29 47 33.2236 $w=3.3e-07 $l=1.9e-07 $layer=POLY_cond $X=12.125 $Y=1.36
+ $X2=12.315 $Y2=1.36
r142 29 33 13.8324 $w=3.3e-07 $l=9e-08 $layer=POLY_cond $X=12.125 $Y=1.36
+ $X2=12.035 $Y2=1.36
r143 26 28 204.047 $w=1.5e-07 $l=6.35e-07 $layer=POLY_cond $X=14.3 $Y=1.765
+ $X2=14.3 $Y2=2.4
r144 25 26 36.0588 $w=1.8e-07 $l=9e-08 $layer=POLY_cond $X=14.3 $Y=1.675
+ $X2=14.3 $Y2=1.765
r145 24 34 32.4784 $w=1.65e-07 $l=1.5e-07 $layer=POLY_cond $X=14.3 $Y=1.52
+ $X2=14.3 $Y2=1.37
r146 24 25 60.25 $w=1.8e-07 $l=1.55e-07 $layer=POLY_cond $X=14.3 $Y=1.52
+ $X2=14.3 $Y2=1.675
r147 21 34 32.4784 $w=1.65e-07 $l=1.57321e-07 $layer=POLY_cond $X=14.285 $Y=1.22
+ $X2=14.3 $Y2=1.37
r148 21 23 154.24 $w=1.5e-07 $l=4.8e-07 $layer=POLY_cond $X=14.285 $Y=1.22
+ $X2=14.285 $Y2=0.74
r149 19 34 2.73406 $w=3e-07 $l=9e-08 $layer=POLY_cond $X=14.21 $Y=1.37 $X2=14.3
+ $Y2=1.37
r150 19 52 67.9852 $w=3e-07 $l=3.4e-07 $layer=POLY_cond $X=14.21 $Y=1.37
+ $X2=13.87 $Y2=1.37
r151 16 18 184.767 $w=1.5e-07 $l=5.75e-07 $layer=POLY_cond $X=12.035 $Y=1.885
+ $X2=12.035 $Y2=2.46
r152 15 16 36.0588 $w=1.8e-07 $l=9e-08 $layer=POLY_cond $X=12.035 $Y=1.795
+ $X2=12.035 $Y2=1.885
r153 14 33 14.2527 $w=1.8e-07 $l=1.65e-07 $layer=POLY_cond $X=12.035 $Y=1.525
+ $X2=12.035 $Y2=1.36
r154 14 15 104.952 $w=1.8e-07 $l=2.7e-07 $layer=POLY_cond $X=12.035 $Y=1.525
+ $X2=12.035 $Y2=1.795
r155 10 32 18.4939 $w=1.5e-07 $l=1.65e-07 $layer=POLY_cond $X=11.945 $Y=1.195
+ $X2=11.945 $Y2=1.36
r156 10 12 258.947 $w=1.5e-07 $l=5.05e-07 $layer=POLY_cond $X=11.945 $Y=1.195
+ $X2=11.945 $Y2=0.69
r157 7 9 184.767 $w=1.5e-07 $l=5.75e-07 $layer=POLY_cond $X=11.535 $Y=1.885
+ $X2=11.535 $Y2=2.46
r158 6 7 36.0588 $w=1.8e-07 $l=9e-08 $layer=POLY_cond $X=11.535 $Y=1.795
+ $X2=11.535 $Y2=1.885
r159 5 31 14.2527 $w=1.8e-07 $l=1.65e-07 $layer=POLY_cond $X=11.535 $Y=1.525
+ $X2=11.535 $Y2=1.36
r160 5 6 104.952 $w=1.8e-07 $l=2.7e-07 $layer=POLY_cond $X=11.535 $Y=1.525
+ $X2=11.535 $Y2=1.795
r161 1 31 29.5102 $w=2.94e-07 $l=2.49199e-07 $layer=POLY_cond $X=11.355 $Y=1.195
+ $X2=11.535 $Y2=1.36
r162 1 3 258.947 $w=1.5e-07 $l=5.05e-07 $layer=POLY_cond $X=11.355 $Y=1.195
+ $X2=11.355 $Y2=0.69
.ends

.subckt PM_SKY130_FD_SC_HS__MUX4_4%A_2489_347# 1 2 7 9 12 14 16 19 21 25 30 32
+ 33 37 39
c88 33 0 4.76525e-20 $X=13.165 $Y=1.635
c89 32 0 2.68058e-20 $X=13.165 $Y=1.635
c90 30 0 2.3931e-20 $X=14.12 $Y=1.72
c91 21 0 1.438e-19 $X=13.875 $Y=1.805
r92 43 44 34.8434 $w=3.32e-07 $l=2.4e-07 $layer=POLY_cond $X=12.795 $Y=1.677
+ $X2=13.035 $Y2=1.677
r93 39 41 9.25293 $w=2.98e-07 $l=1.85e-07 $layer=LI1_cond $X=14.055 $Y=0.775
+ $X2=14.055 $Y2=0.96
r94 33 46 8.71084 $w=3.32e-07 $l=6e-08 $layer=POLY_cond $X=13.165 $Y=1.677
+ $X2=13.225 $Y2=1.677
r95 33 44 18.8735 $w=3.32e-07 $l=1.3e-07 $layer=POLY_cond $X=13.165 $Y=1.677
+ $X2=13.035 $Y2=1.677
r96 32 35 6.02816 $w=3.23e-07 $l=1.7e-07 $layer=LI1_cond $X=13.167 $Y=1.635
+ $X2=13.167 $Y2=1.805
r97 32 33 145.28 $w=1.7e-07 $l=1.7e-07 $layer=licon1_POLY $count=1 $X=13.165
+ $Y=1.635 $X2=13.165 $Y2=1.635
r98 30 37 3.70735 $w=2.5e-07 $l=1.18427e-07 $layer=LI1_cond $X=14.12 $Y=1.72
+ $X2=14.04 $Y2=1.805
r99 30 41 49.5829 $w=1.68e-07 $l=7.6e-07 $layer=LI1_cond $X=14.12 $Y=1.72
+ $X2=14.12 $Y2=0.96
r100 25 27 28.9857 $w=3.28e-07 $l=8.3e-07 $layer=LI1_cond $X=14.04 $Y=1.985
+ $X2=14.04 $Y2=2.815
r101 23 37 3.70735 $w=2.5e-07 $l=8.5e-08 $layer=LI1_cond $X=14.04 $Y=1.89
+ $X2=14.04 $Y2=1.805
r102 23 25 3.31764 $w=3.28e-07 $l=9.5e-08 $layer=LI1_cond $X=14.04 $Y=1.89
+ $X2=14.04 $Y2=1.985
r103 22 35 4.53325 $w=1.7e-07 $l=1.63e-07 $layer=LI1_cond $X=13.33 $Y=1.805
+ $X2=13.167 $Y2=1.805
r104 21 37 2.76166 $w=1.7e-07 $l=1.65e-07 $layer=LI1_cond $X=13.875 $Y=1.805
+ $X2=14.04 $Y2=1.805
r105 21 22 35.5561 $w=1.68e-07 $l=5.45e-07 $layer=LI1_cond $X=13.875 $Y=1.805
+ $X2=13.33 $Y2=1.805
r106 17 46 21.3668 $w=1.5e-07 $l=2.07e-07 $layer=POLY_cond $X=13.225 $Y=1.47
+ $X2=13.225 $Y2=1.677
r107 17 19 399.957 $w=1.5e-07 $l=7.8e-07 $layer=POLY_cond $X=13.225 $Y=1.47
+ $X2=13.225 $Y2=0.69
r108 14 44 21.3668 $w=1.5e-07 $l=2.08e-07 $layer=POLY_cond $X=13.035 $Y=1.885
+ $X2=13.035 $Y2=1.677
r109 14 16 184.767 $w=1.5e-07 $l=5.75e-07 $layer=POLY_cond $X=13.035 $Y=1.885
+ $X2=13.035 $Y2=2.46
r110 10 43 21.3668 $w=1.5e-07 $l=2.07e-07 $layer=POLY_cond $X=12.795 $Y=1.47
+ $X2=12.795 $Y2=1.677
r111 10 12 399.957 $w=1.5e-07 $l=7.8e-07 $layer=POLY_cond $X=12.795 $Y=1.47
+ $X2=12.795 $Y2=0.69
r112 7 43 37.747 $w=3.32e-07 $l=3.48827e-07 $layer=POLY_cond $X=12.535 $Y=1.885
+ $X2=12.795 $Y2=1.677
r113 7 9 184.767 $w=1.5e-07 $l=5.75e-07 $layer=POLY_cond $X=12.535 $Y=1.885
+ $X2=12.535 $Y2=2.46
r114 2 27 400 $w=1.7e-07 $l=1.04499e-06 $layer=licon1_PDIFF $count=1 $X=13.895
+ $Y=1.84 $X2=14.04 $Y2=2.815
r115 2 25 400 $w=1.7e-07 $l=2.05061e-07 $layer=licon1_PDIFF $count=1 $X=13.895
+ $Y=1.84 $X2=14.04 $Y2=1.985
r116 1 39 182 $w=1.7e-07 $l=4.71964e-07 $layer=licon1_NDIFF $count=1 $X=13.925
+ $Y=0.37 $X2=14.07 $Y2=0.775
.ends

.subckt PM_SKY130_FD_SC_HS__MUX4_4%A_2199_74# 1 2 3 4 5 6 19 21 24 26 28 31 33
+ 35 38 40 42 45 50 53 54 55 56 57 59 61 63 65 69 71 74 75 80 83 88 89 94 97 106
c208 106 0 2.3931e-20 $X=16.215 $Y=1.532
c209 59 0 2.5462e-21 $X=13.145 $Y=2.145
c210 57 0 5.98463e-20 $X=12.493 $Y=0.437
r211 106 107 11.8849 $w=3.65e-07 $l=9e-08 $layer=POLY_cond $X=16.215 $Y=1.532
+ $X2=16.305 $Y2=1.532
r212 103 104 14.526 $w=3.65e-07 $l=1.1e-07 $layer=POLY_cond $X=15.765 $Y=1.532
+ $X2=15.875 $Y2=1.532
r213 102 103 42.2575 $w=3.65e-07 $l=3.2e-07 $layer=POLY_cond $X=15.445 $Y=1.532
+ $X2=15.765 $Y2=1.532
r214 101 102 23.7699 $w=3.65e-07 $l=1.8e-07 $layer=POLY_cond $X=15.265 $Y=1.532
+ $X2=15.445 $Y2=1.532
r215 98 99 26.411 $w=3.65e-07 $l=2e-07 $layer=POLY_cond $X=14.815 $Y=1.532
+ $X2=15.015 $Y2=1.532
r216 93 94 8.52431 $w=3.63e-07 $l=1.65e-07 $layer=LI1_cond $X=12.51 $Y=0.437
+ $X2=12.675 $Y2=0.437
r217 88 89 8.68217 $w=3.63e-07 $l=1.7e-07 $layer=LI1_cond $X=11.985 $Y=0.51
+ $X2=12.155 $Y2=0.51
r218 86 87 6.59757 $w=4.18e-07 $l=2.2e-07 $layer=LI1_cond $X=11.265 $Y=0.81
+ $X2=11.265 $Y2=1.03
r219 83 86 3.56709 $w=4.18e-07 $l=1.3e-07 $layer=LI1_cond $X=11.265 $Y=0.68
+ $X2=11.265 $Y2=0.81
r220 81 106 11.8849 $w=3.65e-07 $l=9e-08 $layer=POLY_cond $X=16.125 $Y=1.532
+ $X2=16.215 $Y2=1.532
r221 81 104 33.0137 $w=3.65e-07 $l=2.5e-07 $layer=POLY_cond $X=16.125 $Y=1.532
+ $X2=15.875 $Y2=1.532
r222 80 81 72.64 $w=1.7e-07 $l=3.4e-07 $layer=licon1_POLY $count=2 $X=16.125
+ $Y=1.465 $X2=16.125 $Y2=1.465
r223 78 101 21.1288 $w=3.65e-07 $l=1.6e-07 $layer=POLY_cond $X=15.105 $Y=1.532
+ $X2=15.265 $Y2=1.532
r224 78 99 11.8849 $w=3.65e-07 $l=9e-08 $layer=POLY_cond $X=15.105 $Y=1.532
+ $X2=15.015 $Y2=1.532
r225 77 80 35.621 $w=3.28e-07 $l=1.02e-06 $layer=LI1_cond $X=15.105 $Y=1.465
+ $X2=16.125 $Y2=1.465
r226 77 78 72.64 $w=1.7e-07 $l=3.4e-07 $layer=licon1_POLY $count=2 $X=15.105
+ $Y=1.465 $X2=15.105 $Y2=1.465
r227 75 77 19.5566 $w=3.28e-07 $l=5.6e-07 $layer=LI1_cond $X=14.545 $Y=1.465
+ $X2=15.105 $Y2=1.465
r228 74 75 7.76618 $w=3.3e-07 $l=2.03101e-07 $layer=LI1_cond $X=14.46 $Y=1.3
+ $X2=14.545 $Y2=1.465
r229 73 74 57.0856 $w=1.68e-07 $l=8.75e-07 $layer=LI1_cond $X=14.46 $Y=0.425
+ $X2=14.46 $Y2=1.3
r230 72 97 8.61065 $w=1.7e-07 $l=1.65e-07 $layer=LI1_cond $X=13.675 $Y=0.34
+ $X2=13.51 $Y2=0.34
r231 71 73 6.81649 $w=1.7e-07 $l=1.20208e-07 $layer=LI1_cond $X=14.375 $Y=0.34
+ $X2=14.46 $Y2=0.425
r232 71 72 45.6684 $w=1.68e-07 $l=7e-07 $layer=LI1_cond $X=14.375 $Y=0.34
+ $X2=13.675 $Y2=0.34
r233 67 97 0.89609 $w=3.3e-07 $l=8.5e-08 $layer=LI1_cond $X=13.51 $Y=0.425
+ $X2=13.51 $Y2=0.34
r234 67 69 2.44458 $w=3.28e-07 $l=7e-08 $layer=LI1_cond $X=13.51 $Y=0.425
+ $X2=13.51 $Y2=0.495
r235 63 96 2.6405 $w=3.3e-07 $l=8.5e-08 $layer=LI1_cond $X=13.31 $Y=2.23
+ $X2=13.31 $Y2=2.145
r236 63 65 8.90524 $w=3.28e-07 $l=2.55e-07 $layer=LI1_cond $X=13.31 $Y=2.23
+ $X2=13.31 $Y2=2.485
r237 61 97 8.61065 $w=1.7e-07 $l=1.65e-07 $layer=LI1_cond $X=13.345 $Y=0.34
+ $X2=13.51 $Y2=0.34
r238 61 94 43.7112 $w=1.68e-07 $l=6.7e-07 $layer=LI1_cond $X=13.345 $Y=0.34
+ $X2=12.675 $Y2=0.34
r239 60 91 4.746 $w=1.7e-07 $l=1.90526e-07 $layer=LI1_cond $X=12.475 $Y=2.145
+ $X2=12.31 $Y2=2.09
r240 59 96 5.12568 $w=1.7e-07 $l=1.65e-07 $layer=LI1_cond $X=13.145 $Y=2.145
+ $X2=13.31 $Y2=2.145
r241 59 60 43.7112 $w=1.68e-07 $l=6.7e-07 $layer=LI1_cond $X=13.145 $Y=2.145
+ $X2=12.475 $Y2=2.145
r242 57 93 0.536754 $w=3.63e-07 $l=1.7e-08 $layer=LI1_cond $X=12.493 $Y=0.437
+ $X2=12.51 $Y2=0.437
r243 57 89 10.6719 $w=3.63e-07 $l=3.38e-07 $layer=LI1_cond $X=12.493 $Y=0.437
+ $X2=12.155 $Y2=0.437
r244 55 91 3.02018 $w=3.3e-07 $l=1.4e-07 $layer=LI1_cond $X=12.31 $Y=2.23
+ $X2=12.31 $Y2=2.09
r245 55 56 11.699 $w=3.28e-07 $l=3.35e-07 $layer=LI1_cond $X=12.31 $Y=2.23
+ $X2=12.31 $Y2=2.565
r246 53 56 7.76618 $w=1.7e-07 $l=2.03101e-07 $layer=LI1_cond $X=12.145 $Y=2.65
+ $X2=12.31 $Y2=2.565
r247 53 54 43.7112 $w=1.68e-07 $l=6.7e-07 $layer=LI1_cond $X=12.145 $Y=2.65
+ $X2=11.475 $Y2=2.65
r248 52 83 6.07598 $w=1.7e-07 $l=2.1e-07 $layer=LI1_cond $X=11.475 $Y=0.68
+ $X2=11.265 $Y2=0.68
r249 52 88 33.2727 $w=1.68e-07 $l=5.1e-07 $layer=LI1_cond $X=11.475 $Y=0.68
+ $X2=11.985 $Y2=0.68
r250 50 87 37.5417 $w=3.28e-07 $l=1.075e-06 $layer=LI1_cond $X=11.31 $Y=2.105
+ $X2=11.31 $Y2=1.03
r251 48 54 7.76618 $w=1.7e-07 $l=2.03101e-07 $layer=LI1_cond $X=11.31 $Y=2.565
+ $X2=11.475 $Y2=2.65
r252 48 50 16.0644 $w=3.28e-07 $l=4.6e-07 $layer=LI1_cond $X=11.31 $Y=2.565
+ $X2=11.31 $Y2=2.105
r253 43 107 23.6381 $w=1.5e-07 $l=2.32e-07 $layer=POLY_cond $X=16.305 $Y=1.3
+ $X2=16.305 $Y2=1.532
r254 43 45 287.149 $w=1.5e-07 $l=5.6e-07 $layer=POLY_cond $X=16.305 $Y=1.3
+ $X2=16.305 $Y2=0.74
r255 40 106 23.6381 $w=1.5e-07 $l=2.33e-07 $layer=POLY_cond $X=16.215 $Y=1.765
+ $X2=16.215 $Y2=1.532
r256 40 42 204.047 $w=1.5e-07 $l=6.35e-07 $layer=POLY_cond $X=16.215 $Y=1.765
+ $X2=16.215 $Y2=2.4
r257 36 104 23.6381 $w=1.5e-07 $l=2.32e-07 $layer=POLY_cond $X=15.875 $Y=1.3
+ $X2=15.875 $Y2=1.532
r258 36 38 287.149 $w=1.5e-07 $l=5.6e-07 $layer=POLY_cond $X=15.875 $Y=1.3
+ $X2=15.875 $Y2=0.74
r259 33 103 23.6381 $w=1.5e-07 $l=2.33e-07 $layer=POLY_cond $X=15.765 $Y=1.765
+ $X2=15.765 $Y2=1.532
r260 33 35 204.047 $w=1.5e-07 $l=6.35e-07 $layer=POLY_cond $X=15.765 $Y=1.765
+ $X2=15.765 $Y2=2.4
r261 29 102 23.6381 $w=1.5e-07 $l=2.32e-07 $layer=POLY_cond $X=15.445 $Y=1.3
+ $X2=15.445 $Y2=1.532
r262 29 31 287.149 $w=1.5e-07 $l=5.6e-07 $layer=POLY_cond $X=15.445 $Y=1.3
+ $X2=15.445 $Y2=0.74
r263 26 101 23.6381 $w=1.5e-07 $l=2.33e-07 $layer=POLY_cond $X=15.265 $Y=1.765
+ $X2=15.265 $Y2=1.532
r264 26 28 204.047 $w=1.5e-07 $l=6.35e-07 $layer=POLY_cond $X=15.265 $Y=1.765
+ $X2=15.265 $Y2=2.4
r265 22 99 23.6381 $w=1.5e-07 $l=2.32e-07 $layer=POLY_cond $X=15.015 $Y=1.3
+ $X2=15.015 $Y2=1.532
r266 22 24 287.149 $w=1.5e-07 $l=5.6e-07 $layer=POLY_cond $X=15.015 $Y=1.3
+ $X2=15.015 $Y2=0.74
r267 19 98 23.6381 $w=1.5e-07 $l=2.33e-07 $layer=POLY_cond $X=14.815 $Y=1.765
+ $X2=14.815 $Y2=1.532
r268 19 21 204.047 $w=1.5e-07 $l=6.35e-07 $layer=POLY_cond $X=14.815 $Y=1.765
+ $X2=14.815 $Y2=2.4
r269 6 96 600 $w=1.7e-07 $l=2.77489e-07 $layer=licon1_PDIFF $count=1 $X=13.11
+ $Y=1.96 $X2=13.31 $Y2=2.145
r270 6 65 300 $w=1.7e-07 $l=6.16948e-07 $layer=licon1_PDIFF $count=2 $X=13.11
+ $Y=1.96 $X2=13.31 $Y2=2.485