* File: sky130_fd_sc_hs__bufbuf_16.pex.spice
* Created: Thu Aug 27 20:34:52 2020
* Program "Calibre xRC"
* Version "v2018.4_34.26"
* Nominal Temperature: 27C
* Circuit Temperature: 27C
* 
.subckt PM_SKY130_FD_SC_HS__BUFBUF_16%A 1 3 6 8 12
c32 1 0 5.40859e-20 $X=0.505 $Y=1.765
r33 11 12 145.28 $w=1.7e-07 $l=1.7e-07 $layer=licon1_POLY $count=1 $X=0.34
+ $Y=1.465 $X2=0.34 $Y2=1.465
r34 8 12 6.06549 $w=3.78e-07 $l=2e-07 $layer=LI1_cond $X=0.315 $Y=1.665
+ $X2=0.315 $Y2=1.465
r35 4 11 38.7839 $w=3.5e-07 $l=2.18746e-07 $layer=POLY_cond $X=0.51 $Y=1.3
+ $X2=0.385 $Y2=1.465
r36 4 6 287.149 $w=1.5e-07 $l=5.6e-07 $layer=POLY_cond $X=0.51 $Y=1.3 $X2=0.51
+ $Y2=0.74
r37 1 11 57.3754 $w=3.5e-07 $l=3.54965e-07 $layer=POLY_cond $X=0.505 $Y=1.765
+ $X2=0.385 $Y2=1.465
r38 1 3 204.047 $w=1.5e-07 $l=6.35e-07 $layer=POLY_cond $X=0.505 $Y=1.765
+ $X2=0.505 $Y2=2.4
.ends

.subckt PM_SKY130_FD_SC_HS__BUFBUF_16%A_27_368# 1 2 9 11 13 16 18 20 23 25 27 28
+ 30 34 36 37 38 41 43 49 54 61
c110 9 0 1.78628e-19 $X=0.94 $Y=0.74
r111 61 62 6.07053 $w=3.97e-07 $l=5e-08 $layer=POLY_cond $X=1.805 $Y=1.532
+ $X2=1.855 $Y2=1.532
r112 58 59 4.24937 $w=3.97e-07 $l=3.5e-08 $layer=POLY_cond $X=1.37 $Y=1.532
+ $X2=1.405 $Y2=1.532
r113 55 56 1.82116 $w=3.97e-07 $l=1.5e-08 $layer=POLY_cond $X=0.94 $Y=1.532
+ $X2=0.955 $Y2=1.532
r114 50 61 11.534 $w=3.97e-07 $l=9.5e-08 $layer=POLY_cond $X=1.71 $Y=1.532
+ $X2=1.805 $Y2=1.532
r115 50 59 37.0302 $w=3.97e-07 $l=3.05e-07 $layer=POLY_cond $X=1.71 $Y=1.532
+ $X2=1.405 $Y2=1.532
r116 49 50 96.8533 $w=1.7e-07 $l=2.55e-07 $layer=licon1_POLY $count=1 $X=1.71
+ $Y=1.465 $X2=1.71 $Y2=1.465
r117 47 58 41.2796 $w=3.97e-07 $l=3.4e-07 $layer=POLY_cond $X=1.03 $Y=1.532
+ $X2=1.37 $Y2=1.532
r118 47 56 9.10579 $w=3.97e-07 $l=7.5e-08 $layer=POLY_cond $X=1.03 $Y=1.532
+ $X2=0.955 $Y2=1.532
r119 46 49 23.7473 $w=3.28e-07 $l=6.8e-07 $layer=LI1_cond $X=1.03 $Y=1.465
+ $X2=1.71 $Y2=1.465
r120 46 47 96.8533 $w=1.7e-07 $l=2.55e-07 $layer=licon1_POLY $count=1 $X=1.03
+ $Y=1.465 $X2=1.03 $Y2=1.465
r121 44 54 0.89609 $w=3.3e-07 $l=8.5e-08 $layer=LI1_cond $X=0.845 $Y=1.465
+ $X2=0.76 $Y2=1.465
r122 44 46 6.46067 $w=3.28e-07 $l=1.85e-07 $layer=LI1_cond $X=0.845 $Y=1.465
+ $X2=1.03 $Y2=1.465
r123 42 54 8.61065 $w=1.7e-07 $l=1.65e-07 $layer=LI1_cond $X=0.76 $Y=1.63
+ $X2=0.76 $Y2=1.465
r124 42 43 20.877 $w=1.68e-07 $l=3.2e-07 $layer=LI1_cond $X=0.76 $Y=1.63
+ $X2=0.76 $Y2=1.95
r125 41 54 8.61065 $w=1.7e-07 $l=1.65e-07 $layer=LI1_cond $X=0.76 $Y=1.3
+ $X2=0.76 $Y2=1.465
r126 40 41 11.0909 $w=1.68e-07 $l=1.7e-07 $layer=LI1_cond $X=0.76 $Y=1.13
+ $X2=0.76 $Y2=1.3
r127 39 53 5.12568 $w=1.7e-07 $l=1.65e-07 $layer=LI1_cond $X=0.445 $Y=2.035
+ $X2=0.28 $Y2=2.035
r128 38 43 6.81649 $w=1.7e-07 $l=1.20208e-07 $layer=LI1_cond $X=0.675 $Y=2.035
+ $X2=0.76 $Y2=1.95
r129 38 39 15.0053 $w=1.68e-07 $l=2.3e-07 $layer=LI1_cond $X=0.675 $Y=2.035
+ $X2=0.445 $Y2=2.035
r130 36 40 6.81649 $w=1.7e-07 $l=1.20208e-07 $layer=LI1_cond $X=0.675 $Y=1.045
+ $X2=0.76 $Y2=1.13
r131 36 37 19.246 $w=1.68e-07 $l=2.95e-07 $layer=LI1_cond $X=0.675 $Y=1.045
+ $X2=0.38 $Y2=1.045
r132 32 37 7.14316 $w=1.7e-07 $l=1.62019e-07 $layer=LI1_cond $X=0.255 $Y=0.96
+ $X2=0.38 $Y2=1.045
r133 32 34 20.5135 $w=2.48e-07 $l=4.45e-07 $layer=LI1_cond $X=0.255 $Y=0.96
+ $X2=0.255 $Y2=0.515
r134 28 53 2.6405 $w=3.3e-07 $l=8.5e-08 $layer=LI1_cond $X=0.28 $Y=2.12 $X2=0.28
+ $Y2=2.035
r135 28 30 24.2711 $w=3.28e-07 $l=6.95e-07 $layer=LI1_cond $X=0.28 $Y=2.12
+ $X2=0.28 $Y2=2.815
r136 25 62 25.678 $w=1.5e-07 $l=2.33e-07 $layer=POLY_cond $X=1.855 $Y=1.765
+ $X2=1.855 $Y2=1.532
r137 25 27 204.047 $w=1.5e-07 $l=6.35e-07 $layer=POLY_cond $X=1.855 $Y=1.765
+ $X2=1.855 $Y2=2.4
r138 21 61 25.678 $w=1.5e-07 $l=2.32e-07 $layer=POLY_cond $X=1.805 $Y=1.3
+ $X2=1.805 $Y2=1.532
r139 21 23 287.149 $w=1.5e-07 $l=5.6e-07 $layer=POLY_cond $X=1.805 $Y=1.3
+ $X2=1.805 $Y2=0.74
r140 18 59 25.678 $w=1.5e-07 $l=2.33e-07 $layer=POLY_cond $X=1.405 $Y=1.765
+ $X2=1.405 $Y2=1.532
r141 18 20 204.047 $w=1.5e-07 $l=6.35e-07 $layer=POLY_cond $X=1.405 $Y=1.765
+ $X2=1.405 $Y2=2.4
r142 14 58 25.678 $w=1.5e-07 $l=2.32e-07 $layer=POLY_cond $X=1.37 $Y=1.3
+ $X2=1.37 $Y2=1.532
r143 14 16 287.149 $w=1.5e-07 $l=5.6e-07 $layer=POLY_cond $X=1.37 $Y=1.3
+ $X2=1.37 $Y2=0.74
r144 11 56 25.678 $w=1.5e-07 $l=2.33e-07 $layer=POLY_cond $X=0.955 $Y=1.765
+ $X2=0.955 $Y2=1.532
r145 11 13 204.047 $w=1.5e-07 $l=6.35e-07 $layer=POLY_cond $X=0.955 $Y=1.765
+ $X2=0.955 $Y2=2.4
r146 7 55 25.678 $w=1.5e-07 $l=2.32e-07 $layer=POLY_cond $X=0.94 $Y=1.3 $X2=0.94
+ $Y2=1.532
r147 7 9 287.149 $w=1.5e-07 $l=5.6e-07 $layer=POLY_cond $X=0.94 $Y=1.3 $X2=0.94
+ $Y2=0.74
r148 2 53 400 $w=1.7e-07 $l=3.39853e-07 $layer=licon1_PDIFF $count=1 $X=0.135
+ $Y=1.84 $X2=0.28 $Y2=2.115
r149 2 30 400 $w=1.7e-07 $l=1.04499e-06 $layer=licon1_PDIFF $count=1 $X=0.135
+ $Y=1.84 $X2=0.28 $Y2=2.815
r150 1 34 91 $w=1.7e-07 $l=2.05061e-07 $layer=licon1_NDIFF $count=2 $X=0.15
+ $Y=0.37 $X2=0.295 $Y2=0.515
.ends

.subckt PM_SKY130_FD_SC_HS__BUFBUF_16%A_203_74# 1 2 3 4 15 17 19 22 24 26 27 29
+ 32 36 38 40 41 43 46 48 50 53 57 63 65 66 67 68 71 75 80 82 88 91 92 93 106
c194 68 0 5.40859e-20 $X=1.345 $Y=1.885
c195 66 0 1.78628e-19 $X=1.24 $Y=1.045
c196 48 0 3.06714e-20 $X=5.14 $Y=1.765
r197 106 107 1.90263 $w=3.8e-07 $l=1.5e-08 $layer=POLY_cond $X=5.14 $Y=1.542
+ $X2=5.155 $Y2=1.542
r198 105 106 52.6395 $w=3.8e-07 $l=4.15e-07 $layer=POLY_cond $X=4.725 $Y=1.542
+ $X2=5.14 $Y2=1.542
r199 104 105 4.43947 $w=3.8e-07 $l=3.5e-08 $layer=POLY_cond $X=4.69 $Y=1.542
+ $X2=4.725 $Y2=1.542
r200 101 102 0.634211 $w=3.8e-07 $l=5e-09 $layer=POLY_cond $X=4.225 $Y=1.542
+ $X2=4.23 $Y2=1.542
r201 100 101 54.5421 $w=3.8e-07 $l=4.3e-07 $layer=POLY_cond $X=3.795 $Y=1.542
+ $X2=4.225 $Y2=1.542
r202 99 100 1.90263 $w=3.8e-07 $l=1.5e-08 $layer=POLY_cond $X=3.78 $Y=1.542
+ $X2=3.795 $Y2=1.542
r203 98 99 57.0789 $w=3.8e-07 $l=4.5e-07 $layer=POLY_cond $X=3.33 $Y=1.542
+ $X2=3.78 $Y2=1.542
r204 97 98 4.43947 $w=3.8e-07 $l=3.5e-08 $layer=POLY_cond $X=3.295 $Y=1.542
+ $X2=3.33 $Y2=1.542
r205 94 95 1.90263 $w=3.8e-07 $l=1.5e-08 $layer=POLY_cond $X=2.865 $Y=1.542
+ $X2=2.88 $Y2=1.542
r206 89 104 47.5658 $w=3.8e-07 $l=3.75e-07 $layer=POLY_cond $X=4.315 $Y=1.542
+ $X2=4.69 $Y2=1.542
r207 89 102 10.7816 $w=3.8e-07 $l=8.5e-08 $layer=POLY_cond $X=4.315 $Y=1.542
+ $X2=4.23 $Y2=1.542
r208 88 89 58.112 $w=1.7e-07 $l=4.25e-07 $layer=licon1_POLY $count=2 $X=4.315
+ $Y=1.485 $X2=4.315 $Y2=1.485
r209 86 97 43.1263 $w=3.8e-07 $l=3.4e-07 $layer=POLY_cond $X=2.955 $Y=1.542
+ $X2=3.295 $Y2=1.542
r210 86 95 9.51316 $w=3.8e-07 $l=7.5e-08 $layer=POLY_cond $X=2.955 $Y=1.542
+ $X2=2.88 $Y2=1.542
r211 85 88 47.4946 $w=3.28e-07 $l=1.36e-06 $layer=LI1_cond $X=2.955 $Y=1.485
+ $X2=4.315 $Y2=1.485
r212 85 86 58.112 $w=1.7e-07 $l=4.25e-07 $layer=licon1_POLY $count=2 $X=2.955
+ $Y=1.485 $X2=2.955 $Y2=1.485
r213 83 93 0.63164 $w=3.3e-07 $l=1e-07 $layer=LI1_cond $X=2.245 $Y=1.485
+ $X2=2.145 $Y2=1.485
r214 83 85 24.795 $w=3.28e-07 $l=7.1e-07 $layer=LI1_cond $X=2.245 $Y=1.485
+ $X2=2.955 $Y2=1.485
r215 82 92 3.52026 $w=2.65e-07 $l=1.12916e-07 $layer=LI1_cond $X=2.145 $Y=1.8
+ $X2=2.08 $Y2=1.885
r216 81 93 8.10876 $w=1.85e-07 $l=1.65e-07 $layer=LI1_cond $X=2.145 $Y=1.65
+ $X2=2.145 $Y2=1.485
r217 81 82 8.31818 $w=1.98e-07 $l=1.5e-07 $layer=LI1_cond $X=2.145 $Y=1.65
+ $X2=2.145 $Y2=1.8
r218 80 93 8.10876 $w=1.85e-07 $l=1.72337e-07 $layer=LI1_cond $X=2.13 $Y=1.32
+ $X2=2.145 $Y2=1.485
r219 79 91 3.52026 $w=2.65e-07 $l=1.30767e-07 $layer=LI1_cond $X=2.13 $Y=1.13
+ $X2=2.035 $Y2=1.045
r220 79 80 12.3957 $w=1.68e-07 $l=1.9e-07 $layer=LI1_cond $X=2.13 $Y=1.13
+ $X2=2.13 $Y2=1.32
r221 75 77 28.9857 $w=3.28e-07 $l=8.3e-07 $layer=LI1_cond $X=2.08 $Y=1.985
+ $X2=2.08 $Y2=2.815
r222 73 92 3.52026 $w=2.65e-07 $l=8.5e-08 $layer=LI1_cond $X=2.08 $Y=1.97
+ $X2=2.08 $Y2=1.885
r223 73 75 0.523838 $w=3.28e-07 $l=1.5e-08 $layer=LI1_cond $X=2.08 $Y=1.97
+ $X2=2.08 $Y2=1.985
r224 69 91 3.52026 $w=2.65e-07 $l=8.5e-08 $layer=LI1_cond $X=2.035 $Y=0.96
+ $X2=2.035 $Y2=1.045
r225 69 71 14.2455 $w=3.58e-07 $l=4.45e-07 $layer=LI1_cond $X=2.035 $Y=0.96
+ $X2=2.035 $Y2=0.515
r226 67 92 2.98021 $w=1.7e-07 $l=1.65e-07 $layer=LI1_cond $X=1.915 $Y=1.885
+ $X2=2.08 $Y2=1.885
r227 67 68 37.1872 $w=1.68e-07 $l=5.7e-07 $layer=LI1_cond $X=1.915 $Y=1.885
+ $X2=1.345 $Y2=1.885
r228 65 91 2.98021 $w=1.7e-07 $l=1.8e-07 $layer=LI1_cond $X=1.855 $Y=1.045
+ $X2=2.035 $Y2=1.045
r229 65 66 40.123 $w=1.68e-07 $l=6.15e-07 $layer=LI1_cond $X=1.855 $Y=1.045
+ $X2=1.24 $Y2=1.045
r230 61 66 6.81649 $w=1.7e-07 $l=1.20208e-07 $layer=LI1_cond $X=1.155 $Y=0.96
+ $X2=1.24 $Y2=1.045
r231 61 63 29.0321 $w=1.68e-07 $l=4.45e-07 $layer=LI1_cond $X=1.155 $Y=0.96
+ $X2=1.155 $Y2=0.515
r232 57 59 28.9857 $w=3.28e-07 $l=8.3e-07 $layer=LI1_cond $X=1.18 $Y=1.985
+ $X2=1.18 $Y2=2.815
r233 55 68 7.76618 $w=1.7e-07 $l=2.03101e-07 $layer=LI1_cond $X=1.18 $Y=1.97
+ $X2=1.345 $Y2=1.885
r234 55 57 0.523838 $w=3.28e-07 $l=1.5e-08 $layer=LI1_cond $X=1.18 $Y=1.97
+ $X2=1.18 $Y2=1.985
r235 51 107 24.6126 $w=1.5e-07 $l=2.22e-07 $layer=POLY_cond $X=5.155 $Y=1.32
+ $X2=5.155 $Y2=1.542
r236 51 53 297.404 $w=1.5e-07 $l=5.8e-07 $layer=POLY_cond $X=5.155 $Y=1.32
+ $X2=5.155 $Y2=0.74
r237 48 106 24.6126 $w=1.5e-07 $l=2.23e-07 $layer=POLY_cond $X=5.14 $Y=1.765
+ $X2=5.14 $Y2=1.542
r238 48 50 204.047 $w=1.5e-07 $l=6.35e-07 $layer=POLY_cond $X=5.14 $Y=1.765
+ $X2=5.14 $Y2=2.4
r239 44 105 24.6126 $w=1.5e-07 $l=2.22e-07 $layer=POLY_cond $X=4.725 $Y=1.32
+ $X2=4.725 $Y2=1.542
r240 44 46 297.404 $w=1.5e-07 $l=5.8e-07 $layer=POLY_cond $X=4.725 $Y=1.32
+ $X2=4.725 $Y2=0.74
r241 41 104 24.6126 $w=1.5e-07 $l=2.23e-07 $layer=POLY_cond $X=4.69 $Y=1.765
+ $X2=4.69 $Y2=1.542
r242 41 43 204.047 $w=1.5e-07 $l=6.35e-07 $layer=POLY_cond $X=4.69 $Y=1.765
+ $X2=4.69 $Y2=2.4
r243 38 102 24.6126 $w=1.5e-07 $l=2.23e-07 $layer=POLY_cond $X=4.23 $Y=1.765
+ $X2=4.23 $Y2=1.542
r244 38 40 204.047 $w=1.5e-07 $l=6.35e-07 $layer=POLY_cond $X=4.23 $Y=1.765
+ $X2=4.23 $Y2=2.4
r245 34 101 24.6126 $w=1.5e-07 $l=2.22e-07 $layer=POLY_cond $X=4.225 $Y=1.32
+ $X2=4.225 $Y2=1.542
r246 34 36 297.404 $w=1.5e-07 $l=5.8e-07 $layer=POLY_cond $X=4.225 $Y=1.32
+ $X2=4.225 $Y2=0.74
r247 30 100 24.6126 $w=1.5e-07 $l=2.22e-07 $layer=POLY_cond $X=3.795 $Y=1.32
+ $X2=3.795 $Y2=1.542
r248 30 32 297.404 $w=1.5e-07 $l=5.8e-07 $layer=POLY_cond $X=3.795 $Y=1.32
+ $X2=3.795 $Y2=0.74
r249 27 99 24.6126 $w=1.5e-07 $l=2.23e-07 $layer=POLY_cond $X=3.78 $Y=1.765
+ $X2=3.78 $Y2=1.542
r250 27 29 204.047 $w=1.5e-07 $l=6.35e-07 $layer=POLY_cond $X=3.78 $Y=1.765
+ $X2=3.78 $Y2=2.4
r251 24 98 24.6126 $w=1.5e-07 $l=2.23e-07 $layer=POLY_cond $X=3.33 $Y=1.765
+ $X2=3.33 $Y2=1.542
r252 24 26 204.047 $w=1.5e-07 $l=6.35e-07 $layer=POLY_cond $X=3.33 $Y=1.765
+ $X2=3.33 $Y2=2.4
r253 20 97 24.6126 $w=1.5e-07 $l=2.22e-07 $layer=POLY_cond $X=3.295 $Y=1.32
+ $X2=3.295 $Y2=1.542
r254 20 22 297.404 $w=1.5e-07 $l=5.8e-07 $layer=POLY_cond $X=3.295 $Y=1.32
+ $X2=3.295 $Y2=0.74
r255 17 95 24.6126 $w=1.5e-07 $l=2.23e-07 $layer=POLY_cond $X=2.88 $Y=1.765
+ $X2=2.88 $Y2=1.542
r256 17 19 204.047 $w=1.5e-07 $l=6.35e-07 $layer=POLY_cond $X=2.88 $Y=1.765
+ $X2=2.88 $Y2=2.4
r257 13 94 24.6126 $w=1.5e-07 $l=2.22e-07 $layer=POLY_cond $X=2.865 $Y=1.32
+ $X2=2.865 $Y2=1.542
r258 13 15 297.404 $w=1.5e-07 $l=5.8e-07 $layer=POLY_cond $X=2.865 $Y=1.32
+ $X2=2.865 $Y2=0.74
r259 4 77 400 $w=1.7e-07 $l=1.04732e-06 $layer=licon1_PDIFF $count=1 $X=1.93
+ $Y=1.84 $X2=2.08 $Y2=2.815
r260 4 75 400 $w=1.7e-07 $l=2.10357e-07 $layer=licon1_PDIFF $count=1 $X=1.93
+ $Y=1.84 $X2=2.08 $Y2=1.985
r261 3 59 400 $w=1.7e-07 $l=1.04732e-06 $layer=licon1_PDIFF $count=1 $X=1.03
+ $Y=1.84 $X2=1.18 $Y2=2.815
r262 3 57 400 $w=1.7e-07 $l=2.10357e-07 $layer=licon1_PDIFF $count=1 $X=1.03
+ $Y=1.84 $X2=1.18 $Y2=1.985
r263 2 71 91 $w=1.7e-07 $l=2.03286e-07 $layer=licon1_NDIFF $count=2 $X=1.88
+ $Y=0.37 $X2=2.02 $Y2=0.515
r264 1 63 91 $w=1.7e-07 $l=2.03286e-07 $layer=licon1_NDIFF $count=2 $X=1.015
+ $Y=0.37 $X2=1.155 $Y2=0.515
.ends

.subckt PM_SKY130_FD_SC_HS__BUFBUF_16%A_588_74# 1 2 3 4 5 6 21 23 25 28 30 32 35
+ 37 39 42 44 46 49 51 53 56 58 60 63 65 67 70 72 74 77 79 81 84 86 88 91 93 95
+ 98 100 102 105 107 109 112 114 116 117 119 122 126 128 130 133 135 137 139 140
+ 141 145 149 151 153 155 157 161 164 168 169 170 194 203 210 217 224 231 238
+ 245 248
c482 155 0 1.38532e-19 $X=4.915 $Y=1.99
c483 112 0 9.40629e-20 $X=11.455 $Y=0.74
c484 37 0 1.0086e-19 $X=6.55 $Y=1.765
c485 30 0 1.79811e-19 $X=6.05 $Y=1.765
c486 23 0 1.89809e-19 $X=5.6 $Y=1.765
r487 279 281 2.0766 $w=4.7e-07 $l=8e-08 $layer=LI1_cond $X=5.077 $Y=1.905
+ $X2=5.077 $Y2=1.985
r488 248 249 7.03183 $w=3.77e-07 $l=5.5e-08 $layer=POLY_cond $X=12.395 $Y=1.542
+ $X2=12.45 $Y2=1.542
r489 247 248 54.9761 $w=3.77e-07 $l=4.3e-07 $layer=POLY_cond $X=11.965 $Y=1.542
+ $X2=12.395 $Y2=1.542
r490 246 247 1.91777 $w=3.77e-07 $l=1.5e-08 $layer=POLY_cond $X=11.95 $Y=1.542
+ $X2=11.965 $Y2=1.542
r491 244 246 33.8806 $w=3.77e-07 $l=2.65e-07 $layer=POLY_cond $X=11.685 $Y=1.542
+ $X2=11.95 $Y2=1.542
r492 244 245 145.28 $w=1.7e-07 $l=1.7e-07 $layer=licon1_POLY $count=1 $X=11.685
+ $Y=1.485 $X2=11.685 $Y2=1.485
r493 242 244 23.6525 $w=3.77e-07 $l=1.85e-07 $layer=POLY_cond $X=11.5 $Y=1.542
+ $X2=11.685 $Y2=1.542
r494 241 242 5.75332 $w=3.77e-07 $l=4.5e-08 $layer=POLY_cond $X=11.455 $Y=1.542
+ $X2=11.5 $Y2=1.542
r495 240 241 51.7798 $w=3.77e-07 $l=4.05e-07 $layer=POLY_cond $X=11.05 $Y=1.542
+ $X2=11.455 $Y2=1.542
r496 239 240 3.19629 $w=3.77e-07 $l=2.5e-08 $layer=POLY_cond $X=11.025 $Y=1.542
+ $X2=11.05 $Y2=1.542
r497 237 239 33.8806 $w=3.77e-07 $l=2.65e-07 $layer=POLY_cond $X=10.76 $Y=1.542
+ $X2=11.025 $Y2=1.542
r498 237 238 145.28 $w=1.7e-07 $l=1.7e-07 $layer=licon1_POLY $count=1 $X=10.76
+ $Y=1.485 $X2=10.76 $Y2=1.485
r499 235 237 20.4562 $w=3.77e-07 $l=1.6e-07 $layer=POLY_cond $X=10.6 $Y=1.542
+ $X2=10.76 $Y2=1.542
r500 234 235 9.58886 $w=3.77e-07 $l=7.5e-08 $layer=POLY_cond $X=10.525 $Y=1.542
+ $X2=10.6 $Y2=1.542
r501 233 234 47.9443 $w=3.77e-07 $l=3.75e-07 $layer=POLY_cond $X=10.15 $Y=1.542
+ $X2=10.525 $Y2=1.542
r502 232 233 7.03183 $w=3.77e-07 $l=5.5e-08 $layer=POLY_cond $X=10.095 $Y=1.542
+ $X2=10.15 $Y2=1.542
r503 230 232 35.7984 $w=3.77e-07 $l=2.8e-07 $layer=POLY_cond $X=9.815 $Y=1.542
+ $X2=10.095 $Y2=1.542
r504 230 231 145.28 $w=1.7e-07 $l=1.7e-07 $layer=licon1_POLY $count=1 $X=9.815
+ $Y=1.485 $X2=9.815 $Y2=1.485
r505 228 230 14.7029 $w=3.77e-07 $l=1.15e-07 $layer=POLY_cond $X=9.7 $Y=1.542
+ $X2=9.815 $Y2=1.542
r506 227 228 13.4244 $w=3.77e-07 $l=1.05e-07 $layer=POLY_cond $X=9.595 $Y=1.542
+ $X2=9.7 $Y2=1.542
r507 226 227 44.1088 $w=3.77e-07 $l=3.45e-07 $layer=POLY_cond $X=9.25 $Y=1.542
+ $X2=9.595 $Y2=1.542
r508 225 226 10.8674 $w=3.77e-07 $l=8.5e-08 $layer=POLY_cond $X=9.165 $Y=1.542
+ $X2=9.25 $Y2=1.542
r509 223 225 33.2414 $w=3.77e-07 $l=2.6e-07 $layer=POLY_cond $X=8.905 $Y=1.542
+ $X2=9.165 $Y2=1.542
r510 223 224 145.28 $w=1.7e-07 $l=1.7e-07 $layer=licon1_POLY $count=1 $X=8.905
+ $Y=1.485 $X2=8.905 $Y2=1.485
r511 221 223 13.4244 $w=3.77e-07 $l=1.05e-07 $layer=POLY_cond $X=8.8 $Y=1.542
+ $X2=8.905 $Y2=1.542
r512 220 221 17.2599 $w=3.77e-07 $l=1.35e-07 $layer=POLY_cond $X=8.665 $Y=1.542
+ $X2=8.8 $Y2=1.542
r513 219 220 40.2732 $w=3.77e-07 $l=3.15e-07 $layer=POLY_cond $X=8.35 $Y=1.542
+ $X2=8.665 $Y2=1.542
r514 218 219 14.7029 $w=3.77e-07 $l=1.15e-07 $layer=POLY_cond $X=8.235 $Y=1.542
+ $X2=8.35 $Y2=1.542
r515 216 218 31.9629 $w=3.77e-07 $l=2.5e-07 $layer=POLY_cond $X=7.985 $Y=1.542
+ $X2=8.235 $Y2=1.542
r516 216 217 145.28 $w=1.7e-07 $l=1.7e-07 $layer=licon1_POLY $count=1 $X=7.985
+ $Y=1.485 $X2=7.985 $Y2=1.485
r517 214 216 10.8674 $w=3.77e-07 $l=8.5e-08 $layer=POLY_cond $X=7.9 $Y=1.542
+ $X2=7.985 $Y2=1.542
r518 213 214 21.0955 $w=3.77e-07 $l=1.65e-07 $layer=POLY_cond $X=7.735 $Y=1.542
+ $X2=7.9 $Y2=1.542
r519 212 213 36.4377 $w=3.77e-07 $l=2.85e-07 $layer=POLY_cond $X=7.45 $Y=1.542
+ $X2=7.735 $Y2=1.542
r520 211 212 18.5385 $w=3.77e-07 $l=1.45e-07 $layer=POLY_cond $X=7.305 $Y=1.542
+ $X2=7.45 $Y2=1.542
r521 209 211 28.1273 $w=3.77e-07 $l=2.2e-07 $layer=POLY_cond $X=7.085 $Y=1.542
+ $X2=7.305 $Y2=1.542
r522 209 210 145.28 $w=1.7e-07 $l=1.7e-07 $layer=licon1_POLY $count=1 $X=7.085
+ $Y=1.485 $X2=7.085 $Y2=1.485
r523 207 209 10.8674 $w=3.77e-07 $l=8.5e-08 $layer=POLY_cond $X=7 $Y=1.542
+ $X2=7.085 $Y2=1.542
r524 206 207 15.9814 $w=3.77e-07 $l=1.25e-07 $layer=POLY_cond $X=6.875 $Y=1.542
+ $X2=7 $Y2=1.542
r525 205 206 41.5517 $w=3.77e-07 $l=3.25e-07 $layer=POLY_cond $X=6.55 $Y=1.542
+ $X2=6.875 $Y2=1.542
r526 204 205 13.4244 $w=3.77e-07 $l=1.05e-07 $layer=POLY_cond $X=6.445 $Y=1.542
+ $X2=6.55 $Y2=1.542
r527 202 204 30.0451 $w=3.77e-07 $l=2.35e-07 $layer=POLY_cond $X=6.21 $Y=1.542
+ $X2=6.445 $Y2=1.542
r528 202 203 145.28 $w=1.7e-07 $l=1.7e-07 $layer=licon1_POLY $count=1 $X=6.21
+ $Y=1.485 $X2=6.21 $Y2=1.485
r529 200 202 20.4562 $w=3.77e-07 $l=1.6e-07 $layer=POLY_cond $X=6.05 $Y=1.542
+ $X2=6.21 $Y2=1.542
r530 199 200 4.4748 $w=3.77e-07 $l=3.5e-08 $layer=POLY_cond $X=6.015 $Y=1.542
+ $X2=6.05 $Y2=1.542
r531 198 199 53.0584 $w=3.77e-07 $l=4.15e-07 $layer=POLY_cond $X=5.6 $Y=1.542
+ $X2=6.015 $Y2=1.542
r532 197 198 1.91777 $w=3.77e-07 $l=1.5e-08 $layer=POLY_cond $X=5.585 $Y=1.542
+ $X2=5.6 $Y2=1.542
r533 195 245 5.25164 $w=3.93e-07 $l=1.8e-07 $layer=LI1_cond $X=11.692 $Y=1.665
+ $X2=11.692 $Y2=1.485
r534 194 195 9.3 $w=1.7e-07 $l=1.7e-07 $layer=mcon $count=1 $X=11.685 $Y=1.665
+ $X2=11.685 $Y2=1.665
r535 192 238 5.53173 $w=3.73e-07 $l=1.8e-07 $layer=LI1_cond $X=10.752 $Y=1.665
+ $X2=10.752 $Y2=1.485
r536 191 194 0.593484 $w=2.3e-07 $l=9.25e-07 $layer=MET1_cond $X=10.76 $Y=1.665
+ $X2=11.685 $Y2=1.665
r537 191 192 9.3 $w=1.7e-07 $l=1.7e-07 $layer=mcon $count=1 $X=10.76 $Y=1.665
+ $X2=10.76 $Y2=1.665
r538 189 231 6.38276 $w=3.23e-07 $l=1.8e-07 $layer=LI1_cond $X=9.812 $Y=1.665
+ $X2=9.812 $Y2=1.485
r539 188 191 0.606316 $w=2.3e-07 $l=9.45e-07 $layer=MET1_cond $X=9.815 $Y=1.665
+ $X2=10.76 $Y2=1.665
r540 188 189 9.3 $w=1.7e-07 $l=1.7e-07 $layer=mcon $count=1 $X=9.815 $Y=1.665
+ $X2=9.815 $Y2=1.665
r541 186 224 7.03186 $w=2.93e-07 $l=1.8e-07 $layer=LI1_cond $X=8.897 $Y=1.665
+ $X2=8.897 $Y2=1.485
r542 185 188 0.58386 $w=2.3e-07 $l=9.1e-07 $layer=MET1_cond $X=8.905 $Y=1.665
+ $X2=9.815 $Y2=1.665
r543 185 186 9.3 $w=1.7e-07 $l=1.7e-07 $layer=mcon $count=1 $X=8.905 $Y=1.665
+ $X2=8.905 $Y2=1.665
r544 183 217 7.82791 $w=2.63e-07 $l=1.8e-07 $layer=LI1_cond $X=7.982 $Y=1.665
+ $X2=7.982 $Y2=1.485
r545 182 185 0.590276 $w=2.3e-07 $l=9.2e-07 $layer=MET1_cond $X=7.985 $Y=1.665
+ $X2=8.905 $Y2=1.665
r546 182 183 9.3 $w=1.7e-07 $l=1.7e-07 $layer=mcon $count=1 $X=7.985 $Y=1.665
+ $X2=7.985 $Y2=1.665
r547 180 210 7.82791 $w=2.63e-07 $l=1.8e-07 $layer=LI1_cond $X=7.082 $Y=1.665
+ $X2=7.082 $Y2=1.485
r548 179 182 0.577444 $w=2.3e-07 $l=9e-07 $layer=MET1_cond $X=7.085 $Y=1.665
+ $X2=7.985 $Y2=1.665
r549 179 180 9.3 $w=1.7e-07 $l=1.7e-07 $layer=mcon $count=1 $X=7.085 $Y=1.665
+ $X2=7.085 $Y2=1.665
r550 177 203 6.6916 $w=3.08e-07 $l=1.8e-07 $layer=LI1_cond $X=6.21 $Y=1.665
+ $X2=6.21 $Y2=1.485
r551 176 179 0.561404 $w=2.3e-07 $l=8.75e-07 $layer=MET1_cond $X=6.21 $Y=1.665
+ $X2=7.085 $Y2=1.665
r552 176 177 9.3 $w=1.7e-07 $l=1.7e-07 $layer=mcon $count=1 $X=6.21 $Y=1.665
+ $X2=6.21 $Y2=1.665
r553 173 279 6.22979 $w=4.7e-07 $l=2.4e-07 $layer=LI1_cond $X=5.077 $Y=1.665
+ $X2=5.077 $Y2=1.905
r554 172 176 0.606316 $w=2.3e-07 $l=9.45e-07 $layer=MET1_cond $X=5.265 $Y=1.665
+ $X2=6.21 $Y2=1.665
r555 172 173 9.3 $w=1.7e-07 $l=1.7e-07 $layer=mcon $count=1 $X=5.265 $Y=1.665
+ $X2=5.265 $Y2=1.665
r556 164 173 11.3723 $w=4.7e-07 $l=3.92702e-07 $layer=LI1_cond $X=4.975 $Y=1.32
+ $X2=5.077 $Y2=1.665
r557 163 170 3.64284 $w=2.55e-07 $l=1.00995e-07 $layer=LI1_cond $X=4.975 $Y=1.15
+ $X2=4.94 $Y2=1.065
r558 163 164 7.5352 $w=2.58e-07 $l=1.7e-07 $layer=LI1_cond $X=4.975 $Y=1.15
+ $X2=4.975 $Y2=1.32
r559 159 170 3.64284 $w=2.55e-07 $l=1.03078e-07 $layer=LI1_cond $X=4.9 $Y=0.98
+ $X2=4.94 $Y2=1.065
r560 159 161 21.4354 $w=2.48e-07 $l=4.65e-07 $layer=LI1_cond $X=4.9 $Y=0.98
+ $X2=4.9 $Y2=0.515
r561 155 281 1.22671 $w=4.7e-07 $l=1.64481e-07 $layer=LI1_cond $X=4.915 $Y=1.99
+ $X2=5.077 $Y2=1.985
r562 155 157 28.8111 $w=3.28e-07 $l=8.25e-07 $layer=LI1_cond $X=4.915 $Y=1.99
+ $X2=4.915 $Y2=2.815
r563 154 168 8.61065 $w=1.7e-07 $l=1.65e-07 $layer=LI1_cond $X=4.17 $Y=1.905
+ $X2=4.005 $Y2=1.905
r564 153 279 6.76998 $w=1.7e-07 $l=3.27e-07 $layer=LI1_cond $X=4.75 $Y=1.905
+ $X2=5.077 $Y2=1.905
r565 153 154 37.8396 $w=1.68e-07 $l=5.8e-07 $layer=LI1_cond $X=4.75 $Y=1.905
+ $X2=4.17 $Y2=1.905
r566 152 169 7.02821 $w=1.7e-07 $l=1.25e-07 $layer=LI1_cond $X=4.095 $Y=1.065
+ $X2=3.97 $Y2=1.065
r567 151 170 2.83584 $w=1.7e-07 $l=1.65e-07 $layer=LI1_cond $X=4.775 $Y=1.065
+ $X2=4.94 $Y2=1.065
r568 151 152 44.3636 $w=1.68e-07 $l=6.8e-07 $layer=LI1_cond $X=4.775 $Y=1.065
+ $X2=4.095 $Y2=1.065
r569 147 169 0.00168595 $w=2.5e-07 $l=8.5e-08 $layer=LI1_cond $X=3.97 $Y=0.98
+ $X2=3.97 $Y2=1.065
r570 147 149 21.4354 $w=2.48e-07 $l=4.65e-07 $layer=LI1_cond $X=3.97 $Y=0.98
+ $X2=3.97 $Y2=0.515
r571 143 168 0.89609 $w=3.3e-07 $l=8.5e-08 $layer=LI1_cond $X=4.005 $Y=1.99
+ $X2=4.005 $Y2=1.905
r572 143 145 28.8111 $w=3.28e-07 $l=8.25e-07 $layer=LI1_cond $X=4.005 $Y=1.99
+ $X2=4.005 $Y2=2.815
r573 142 166 5.12568 $w=1.7e-07 $l=1.65e-07 $layer=LI1_cond $X=3.27 $Y=1.905
+ $X2=3.105 $Y2=1.905
r574 141 168 8.61065 $w=1.7e-07 $l=1.65e-07 $layer=LI1_cond $X=3.84 $Y=1.905
+ $X2=4.005 $Y2=1.905
r575 141 142 37.1872 $w=1.68e-07 $l=5.7e-07 $layer=LI1_cond $X=3.84 $Y=1.905
+ $X2=3.27 $Y2=1.905
r576 139 169 7.02821 $w=1.7e-07 $l=1.25e-07 $layer=LI1_cond $X=3.845 $Y=1.065
+ $X2=3.97 $Y2=1.065
r577 139 140 44.3636 $w=1.68e-07 $l=6.8e-07 $layer=LI1_cond $X=3.845 $Y=1.065
+ $X2=3.165 $Y2=1.065
r578 135 166 2.6405 $w=3.3e-07 $l=8.5e-08 $layer=LI1_cond $X=3.105 $Y=1.99
+ $X2=3.105 $Y2=1.905
r579 135 137 28.8111 $w=3.28e-07 $l=8.25e-07 $layer=LI1_cond $X=3.105 $Y=1.99
+ $X2=3.105 $Y2=2.815
r580 131 140 7.14316 $w=1.7e-07 $l=1.62019e-07 $layer=LI1_cond $X=3.04 $Y=0.98
+ $X2=3.165 $Y2=1.065
r581 131 133 21.4354 $w=2.48e-07 $l=4.65e-07 $layer=LI1_cond $X=3.04 $Y=0.98
+ $X2=3.04 $Y2=0.515
r582 128 249 24.4204 $w=1.5e-07 $l=2.23e-07 $layer=POLY_cond $X=12.45 $Y=1.765
+ $X2=12.45 $Y2=1.542
r583 128 130 204.047 $w=1.5e-07 $l=6.35e-07 $layer=POLY_cond $X=12.45 $Y=1.765
+ $X2=12.45 $Y2=2.4
r584 124 248 24.4204 $w=1.5e-07 $l=2.22e-07 $layer=POLY_cond $X=12.395 $Y=1.32
+ $X2=12.395 $Y2=1.542
r585 124 126 297.404 $w=1.5e-07 $l=5.8e-07 $layer=POLY_cond $X=12.395 $Y=1.32
+ $X2=12.395 $Y2=0.74
r586 120 247 24.4204 $w=1.5e-07 $l=2.22e-07 $layer=POLY_cond $X=11.965 $Y=1.32
+ $X2=11.965 $Y2=1.542
r587 120 122 297.404 $w=1.5e-07 $l=5.8e-07 $layer=POLY_cond $X=11.965 $Y=1.32
+ $X2=11.965 $Y2=0.74
r588 117 246 24.4204 $w=1.5e-07 $l=2.23e-07 $layer=POLY_cond $X=11.95 $Y=1.765
+ $X2=11.95 $Y2=1.542
r589 117 119 204.047 $w=1.5e-07 $l=6.35e-07 $layer=POLY_cond $X=11.95 $Y=1.765
+ $X2=11.95 $Y2=2.4
r590 114 242 24.4204 $w=1.5e-07 $l=2.23e-07 $layer=POLY_cond $X=11.5 $Y=1.765
+ $X2=11.5 $Y2=1.542
r591 114 116 204.047 $w=1.5e-07 $l=6.35e-07 $layer=POLY_cond $X=11.5 $Y=1.765
+ $X2=11.5 $Y2=2.4
r592 110 241 24.4204 $w=1.5e-07 $l=2.22e-07 $layer=POLY_cond $X=11.455 $Y=1.32
+ $X2=11.455 $Y2=1.542
r593 110 112 297.404 $w=1.5e-07 $l=5.8e-07 $layer=POLY_cond $X=11.455 $Y=1.32
+ $X2=11.455 $Y2=0.74
r594 107 240 24.4204 $w=1.5e-07 $l=2.23e-07 $layer=POLY_cond $X=11.05 $Y=1.765
+ $X2=11.05 $Y2=1.542
r595 107 109 204.047 $w=1.5e-07 $l=6.35e-07 $layer=POLY_cond $X=11.05 $Y=1.765
+ $X2=11.05 $Y2=2.4
r596 103 239 24.4204 $w=1.5e-07 $l=2.22e-07 $layer=POLY_cond $X=11.025 $Y=1.32
+ $X2=11.025 $Y2=1.542
r597 103 105 297.404 $w=1.5e-07 $l=5.8e-07 $layer=POLY_cond $X=11.025 $Y=1.32
+ $X2=11.025 $Y2=0.74
r598 100 235 24.4204 $w=1.5e-07 $l=2.23e-07 $layer=POLY_cond $X=10.6 $Y=1.765
+ $X2=10.6 $Y2=1.542
r599 100 102 204.047 $w=1.5e-07 $l=6.35e-07 $layer=POLY_cond $X=10.6 $Y=1.765
+ $X2=10.6 $Y2=2.4
r600 96 234 24.4204 $w=1.5e-07 $l=2.22e-07 $layer=POLY_cond $X=10.525 $Y=1.32
+ $X2=10.525 $Y2=1.542
r601 96 98 297.404 $w=1.5e-07 $l=5.8e-07 $layer=POLY_cond $X=10.525 $Y=1.32
+ $X2=10.525 $Y2=0.74
r602 93 233 24.4204 $w=1.5e-07 $l=2.23e-07 $layer=POLY_cond $X=10.15 $Y=1.765
+ $X2=10.15 $Y2=1.542
r603 93 95 204.047 $w=1.5e-07 $l=6.35e-07 $layer=POLY_cond $X=10.15 $Y=1.765
+ $X2=10.15 $Y2=2.4
r604 89 232 24.4204 $w=1.5e-07 $l=2.22e-07 $layer=POLY_cond $X=10.095 $Y=1.32
+ $X2=10.095 $Y2=1.542
r605 89 91 297.404 $w=1.5e-07 $l=5.8e-07 $layer=POLY_cond $X=10.095 $Y=1.32
+ $X2=10.095 $Y2=0.74
r606 86 228 24.4204 $w=1.5e-07 $l=2.23e-07 $layer=POLY_cond $X=9.7 $Y=1.765
+ $X2=9.7 $Y2=1.542
r607 86 88 204.047 $w=1.5e-07 $l=6.35e-07 $layer=POLY_cond $X=9.7 $Y=1.765
+ $X2=9.7 $Y2=2.4
r608 82 227 24.4204 $w=1.5e-07 $l=2.22e-07 $layer=POLY_cond $X=9.595 $Y=1.32
+ $X2=9.595 $Y2=1.542
r609 82 84 297.404 $w=1.5e-07 $l=5.8e-07 $layer=POLY_cond $X=9.595 $Y=1.32
+ $X2=9.595 $Y2=0.74
r610 79 226 24.4204 $w=1.5e-07 $l=2.23e-07 $layer=POLY_cond $X=9.25 $Y=1.765
+ $X2=9.25 $Y2=1.542
r611 79 81 204.047 $w=1.5e-07 $l=6.35e-07 $layer=POLY_cond $X=9.25 $Y=1.765
+ $X2=9.25 $Y2=2.4
r612 75 225 24.4204 $w=1.5e-07 $l=2.22e-07 $layer=POLY_cond $X=9.165 $Y=1.32
+ $X2=9.165 $Y2=1.542
r613 75 77 297.404 $w=1.5e-07 $l=5.8e-07 $layer=POLY_cond $X=9.165 $Y=1.32
+ $X2=9.165 $Y2=0.74
r614 72 221 24.4204 $w=1.5e-07 $l=2.23e-07 $layer=POLY_cond $X=8.8 $Y=1.765
+ $X2=8.8 $Y2=1.542
r615 72 74 204.047 $w=1.5e-07 $l=6.35e-07 $layer=POLY_cond $X=8.8 $Y=1.765
+ $X2=8.8 $Y2=2.4
r616 68 220 24.4204 $w=1.5e-07 $l=2.22e-07 $layer=POLY_cond $X=8.665 $Y=1.32
+ $X2=8.665 $Y2=1.542
r617 68 70 297.404 $w=1.5e-07 $l=5.8e-07 $layer=POLY_cond $X=8.665 $Y=1.32
+ $X2=8.665 $Y2=0.74
r618 65 219 24.4204 $w=1.5e-07 $l=2.23e-07 $layer=POLY_cond $X=8.35 $Y=1.765
+ $X2=8.35 $Y2=1.542
r619 65 67 204.047 $w=1.5e-07 $l=6.35e-07 $layer=POLY_cond $X=8.35 $Y=1.765
+ $X2=8.35 $Y2=2.4
r620 61 218 24.4204 $w=1.5e-07 $l=2.22e-07 $layer=POLY_cond $X=8.235 $Y=1.32
+ $X2=8.235 $Y2=1.542
r621 61 63 297.404 $w=1.5e-07 $l=5.8e-07 $layer=POLY_cond $X=8.235 $Y=1.32
+ $X2=8.235 $Y2=0.74
r622 58 214 24.4204 $w=1.5e-07 $l=2.23e-07 $layer=POLY_cond $X=7.9 $Y=1.765
+ $X2=7.9 $Y2=1.542
r623 58 60 204.047 $w=1.5e-07 $l=6.35e-07 $layer=POLY_cond $X=7.9 $Y=1.765
+ $X2=7.9 $Y2=2.4
r624 54 213 24.4204 $w=1.5e-07 $l=2.22e-07 $layer=POLY_cond $X=7.735 $Y=1.32
+ $X2=7.735 $Y2=1.542
r625 54 56 297.404 $w=1.5e-07 $l=5.8e-07 $layer=POLY_cond $X=7.735 $Y=1.32
+ $X2=7.735 $Y2=0.74
r626 51 212 24.4204 $w=1.5e-07 $l=2.23e-07 $layer=POLY_cond $X=7.45 $Y=1.765
+ $X2=7.45 $Y2=1.542
r627 51 53 204.047 $w=1.5e-07 $l=6.35e-07 $layer=POLY_cond $X=7.45 $Y=1.765
+ $X2=7.45 $Y2=2.4
r628 47 211 24.4204 $w=1.5e-07 $l=2.22e-07 $layer=POLY_cond $X=7.305 $Y=1.32
+ $X2=7.305 $Y2=1.542
r629 47 49 297.404 $w=1.5e-07 $l=5.8e-07 $layer=POLY_cond $X=7.305 $Y=1.32
+ $X2=7.305 $Y2=0.74
r630 44 207 24.4204 $w=1.5e-07 $l=2.23e-07 $layer=POLY_cond $X=7 $Y=1.765 $X2=7
+ $Y2=1.542
r631 44 46 204.047 $w=1.5e-07 $l=6.35e-07 $layer=POLY_cond $X=7 $Y=1.765 $X2=7
+ $Y2=2.4
r632 40 206 24.4204 $w=1.5e-07 $l=2.22e-07 $layer=POLY_cond $X=6.875 $Y=1.32
+ $X2=6.875 $Y2=1.542
r633 40 42 297.404 $w=1.5e-07 $l=5.8e-07 $layer=POLY_cond $X=6.875 $Y=1.32
+ $X2=6.875 $Y2=0.74
r634 37 205 24.4204 $w=1.5e-07 $l=2.23e-07 $layer=POLY_cond $X=6.55 $Y=1.765
+ $X2=6.55 $Y2=1.542
r635 37 39 204.047 $w=1.5e-07 $l=6.35e-07 $layer=POLY_cond $X=6.55 $Y=1.765
+ $X2=6.55 $Y2=2.4
r636 33 204 24.4204 $w=1.5e-07 $l=2.22e-07 $layer=POLY_cond $X=6.445 $Y=1.32
+ $X2=6.445 $Y2=1.542
r637 33 35 297.404 $w=1.5e-07 $l=5.8e-07 $layer=POLY_cond $X=6.445 $Y=1.32
+ $X2=6.445 $Y2=0.74
r638 30 200 24.4204 $w=1.5e-07 $l=2.23e-07 $layer=POLY_cond $X=6.05 $Y=1.765
+ $X2=6.05 $Y2=1.542
r639 30 32 204.047 $w=1.5e-07 $l=6.35e-07 $layer=POLY_cond $X=6.05 $Y=1.765
+ $X2=6.05 $Y2=2.4
r640 26 199 24.4204 $w=1.5e-07 $l=2.22e-07 $layer=POLY_cond $X=6.015 $Y=1.32
+ $X2=6.015 $Y2=1.542
r641 26 28 297.404 $w=1.5e-07 $l=5.8e-07 $layer=POLY_cond $X=6.015 $Y=1.32
+ $X2=6.015 $Y2=0.74
r642 23 198 24.4204 $w=1.5e-07 $l=2.23e-07 $layer=POLY_cond $X=5.6 $Y=1.765
+ $X2=5.6 $Y2=1.542
r643 23 25 204.047 $w=1.5e-07 $l=6.35e-07 $layer=POLY_cond $X=5.6 $Y=1.765
+ $X2=5.6 $Y2=2.4
r644 19 197 24.4204 $w=1.5e-07 $l=2.22e-07 $layer=POLY_cond $X=5.585 $Y=1.32
+ $X2=5.585 $Y2=1.542
r645 19 21 297.404 $w=1.5e-07 $l=5.8e-07 $layer=POLY_cond $X=5.585 $Y=1.32
+ $X2=5.585 $Y2=0.74
r646 6 281 400 $w=1.7e-07 $l=2.10357e-07 $layer=licon1_PDIFF $count=1 $X=4.765
+ $Y=1.84 $X2=4.915 $Y2=1.985
r647 6 157 400 $w=1.7e-07 $l=1.04732e-06 $layer=licon1_PDIFF $count=1 $X=4.765
+ $Y=1.84 $X2=4.915 $Y2=2.815
r648 5 168 400 $w=1.7e-07 $l=2.10357e-07 $layer=licon1_PDIFF $count=1 $X=3.855
+ $Y=1.84 $X2=4.005 $Y2=1.985
r649 5 145 400 $w=1.7e-07 $l=1.04732e-06 $layer=licon1_PDIFF $count=1 $X=3.855
+ $Y=1.84 $X2=4.005 $Y2=2.815
r650 4 166 400 $w=1.7e-07 $l=2.10357e-07 $layer=licon1_PDIFF $count=1 $X=2.955
+ $Y=1.84 $X2=3.105 $Y2=1.985
r651 4 137 400 $w=1.7e-07 $l=1.04732e-06 $layer=licon1_PDIFF $count=1 $X=2.955
+ $Y=1.84 $X2=3.105 $Y2=2.815
r652 3 161 91 $w=1.7e-07 $l=2.03286e-07 $layer=licon1_NDIFF $count=2 $X=4.8
+ $Y=0.37 $X2=4.94 $Y2=0.515
r653 2 149 91 $w=1.7e-07 $l=2.03286e-07 $layer=licon1_NDIFF $count=2 $X=3.87
+ $Y=0.37 $X2=4.01 $Y2=0.515
r654 1 133 91 $w=1.7e-07 $l=2.03286e-07 $layer=licon1_NDIFF $count=2 $X=2.94
+ $Y=0.37 $X2=3.08 $Y2=0.515
.ends

.subckt PM_SKY130_FD_SC_HS__BUFBUF_16%VPWR 1 2 3 4 5 6 7 8 9 10 11 12 13 14 47
+ 51 55 61 65 69 75 79 83 89 93 97 101 105 111 115 117 122 123 125 126 128 129
+ 131 132 134 135 137 138 140 141 142 143 144 150 176 181 187 190 193 196 199
+ 203
r232 202 203 9.3 $w=1.7e-07 $l=1.7e-07 $layer=mcon $count=1 $X=12.72 $Y=3.33
+ $X2=12.72 $Y2=3.33
r233 199 200 9.3 $w=1.7e-07 $l=1.7e-07 $layer=mcon $count=1 $X=11.76 $Y=3.33
+ $X2=11.76 $Y2=3.33
r234 196 197 4.65 $w=1.7e-07 $l=3.4e-07 $layer=mcon $count=2 $X=10.8 $Y=3.33
+ $X2=10.8 $Y2=3.33
r235 194 197 0.267585 $w=4.9e-07 $l=9.6e-07 $layer=MET1_cond $X=9.84 $Y=3.33
+ $X2=10.8 $Y2=3.33
r236 193 194 4.65 $w=1.7e-07 $l=3.4e-07 $layer=mcon $count=2 $X=9.84 $Y=3.33
+ $X2=9.84 $Y2=3.33