* File: sky130_fd_sc_hs__dlxtn_4.pex.spice
* Created: Tue Sep  1 20:03:09 2020
* Program "Calibre xRC"
* Version "v2018.4_34.26"
* Nominal Temperature: 27C
* Circuit Temperature: 27C
* 
.subckt PM_SKY130_FD_SC_HS__DLXTN_4%D 3 6 7 9 10 14 17
c30 3 0 1.04866e-19 $X=0.495 $Y=0.85
r31 16 17 5.24584 $w=3.3e-07 $l=3e-08 $layer=POLY_cond $X=0.495 $Y=1.465
+ $X2=0.525 $Y2=1.465
r32 13 16 35.8466 $w=3.3e-07 $l=2.05e-07 $layer=POLY_cond $X=0.29 $Y=1.465
+ $X2=0.495 $Y2=1.465
r33 13 14 145.28 $w=1.7e-07 $l=1.7e-07 $layer=licon1_POLY $count=1 $X=0.29
+ $Y=1.465 $X2=0.29 $Y2=1.465
r34 10 14 6.9845 $w=3.28e-07 $l=2e-07 $layer=LI1_cond $X=0.29 $Y=1.665 $X2=0.29
+ $Y2=1.465
r35 7 9 159.06 $w=1.5e-07 $l=4.95e-07 $layer=POLY_cond $X=0.525 $Y=2.045
+ $X2=0.525 $Y2=2.54
r36 6 7 36.0588 $w=1.8e-07 $l=9e-08 $layer=POLY_cond $X=0.525 $Y=1.955 $X2=0.525
+ $Y2=2.045
r37 5 17 16.9318 $w=1.8e-07 $l=1.65e-07 $layer=POLY_cond $X=0.525 $Y=1.63
+ $X2=0.525 $Y2=1.465
r38 5 6 126.331 $w=1.8e-07 $l=3.25e-07 $layer=POLY_cond $X=0.525 $Y=1.63
+ $X2=0.525 $Y2=1.955
r39 1 16 21.2229 $w=1.5e-07 $l=1.65e-07 $layer=POLY_cond $X=0.495 $Y=1.3
+ $X2=0.495 $Y2=1.465
r40 1 3 230.745 $w=1.5e-07 $l=4.5e-07 $layer=POLY_cond $X=0.495 $Y=1.3 $X2=0.495
+ $Y2=0.85
.ends

.subckt PM_SKY130_FD_SC_HS__DLXTN_4%GATE_N 1 3 6 8
c38 1 0 1.65063e-19 $X=1.075 $Y=2.045
r39 8 11 145.28 $w=1.7e-07 $l=1.7e-07 $layer=licon1_POLY $count=1 $X=1.15
+ $Y=1.665 $X2=1.15 $Y2=1.665
r40 4 11 38.9026 $w=2.7e-07 $l=1.94808e-07 $layer=POLY_cond $X=1.085 $Y=1.5
+ $X2=1.15 $Y2=1.665
r41 4 6 287.149 $w=1.5e-07 $l=5.6e-07 $layer=POLY_cond $X=1.085 $Y=1.5 $X2=1.085
+ $Y2=0.94
r42 1 11 77.2841 $w=2.7e-07 $l=4.15812e-07 $layer=POLY_cond $X=1.075 $Y=2.045
+ $X2=1.15 $Y2=1.665
r43 1 3 159.06 $w=1.5e-07 $l=4.95e-07 $layer=POLY_cond $X=1.075 $Y=2.045
+ $X2=1.075 $Y2=2.54
.ends

.subckt PM_SKY130_FD_SC_HS__DLXTN_4%A_230_424# 1 2 7 9 10 12 13 15 17 19 20 22
+ 25 27 31 32 35 38 39 40 42 44 45 50 52 56 57 64
c154 40 0 1.00461e-19 $X=3.16 $Y=2.99
c155 27 0 1.04866e-19 $X=1.485 $Y=1.165
c156 25 0 6.91456e-20 $X=3.855 $Y=1.185
r157 66 68 2.62292 $w=3.3e-07 $l=1.5e-08 $layer=POLY_cond $X=3.855 $Y=1.57
+ $X2=3.87 $Y2=1.57
r158 57 68 60.3271 $w=3.3e-07 $l=3.45e-07 $layer=POLY_cond $X=4.215 $Y=1.57
+ $X2=3.87 $Y2=1.57
r159 56 59 8.46218 $w=3.28e-07 $l=1.65e-07 $layer=LI1_cond $X=4.215 $Y=1.57
+ $X2=4.215 $Y2=1.735
r160 56 57 145.28 $w=1.7e-07 $l=1.7e-07 $layer=licon1_POLY $count=1 $X=4.215
+ $Y=1.57 $X2=4.215 $Y2=1.57
r161 53 64 43.6978 $w=5.46e-07 $l=4.95e-07 $layer=POLY_cond $X=1.72 $Y=1.535
+ $X2=2.215 $Y2=1.535
r162 53 60 14.5509 $w=3.3e-07 $l=3.5e-07 $layer=POLY_cond $X=1.72 $Y=1.535
+ $X2=1.72 $Y2=1.185
r163 52 54 8.64761 $w=3.98e-07 $l=1.65e-07 $layer=LI1_cond $X=1.685 $Y=1.605
+ $X2=1.685 $Y2=1.77
r164 52 53 96.8533 $w=1.7e-07 $l=2.55e-07 $layer=licon1_POLY $count=1 $X=1.72
+ $Y=1.605 $X2=1.72 $Y2=1.605
r165 50 60 45.4639 $w=3.3e-07 $l=2.6e-07 $layer=POLY_cond $X=1.72 $Y=0.925
+ $X2=1.72 $Y2=1.185
r166 49 50 96.8533 $w=1.7e-07 $l=2.55e-07 $layer=licon1_POLY $count=1 $X=1.72
+ $Y=0.925 $X2=1.72 $Y2=0.925
r167 45 54 21.5294 $w=1.68e-07 $l=3.3e-07 $layer=LI1_cond $X=1.57 $Y=2.1
+ $X2=1.57 $Y2=1.77
r168 44 46 4.83032 $w=5.18e-07 $l=2.1e-07 $layer=LI1_cond $X=1.395 $Y=2.265
+ $X2=1.395 $Y2=2.475
r169 44 45 9.6413 $w=5.18e-07 $l=1.65e-07 $layer=LI1_cond $X=1.395 $Y=2.265
+ $X2=1.395 $Y2=2.1
r170 42 59 76.3316 $w=1.68e-07 $l=1.17e-06 $layer=LI1_cond $X=4.135 $Y=2.905
+ $X2=4.135 $Y2=1.735
r171 39 42 6.81649 $w=1.7e-07 $l=1.20208e-07 $layer=LI1_cond $X=4.05 $Y=2.99
+ $X2=4.135 $Y2=2.905
r172 39 40 58.0642 $w=1.68e-07 $l=8.9e-07 $layer=LI1_cond $X=4.05 $Y=2.99
+ $X2=3.16 $Y2=2.99
r173 38 40 6.81649 $w=1.7e-07 $l=1.20208e-07 $layer=LI1_cond $X=3.075 $Y=2.905
+ $X2=3.16 $Y2=2.99
r174 37 38 22.508 $w=1.68e-07 $l=3.45e-07 $layer=LI1_cond $X=3.075 $Y=2.56
+ $X2=3.075 $Y2=2.905
r175 36 46 7.40362 $w=1.7e-07 $l=2.6e-07 $layer=LI1_cond $X=1.655 $Y=2.475
+ $X2=1.395 $Y2=2.475
r176 35 37 6.81649 $w=1.7e-07 $l=1.20208e-07 $layer=LI1_cond $X=2.99 $Y=2.475
+ $X2=3.075 $Y2=2.56
r177 35 36 87.0963 $w=1.68e-07 $l=1.335e-06 $layer=LI1_cond $X=2.99 $Y=2.475
+ $X2=1.655 $Y2=2.475
r178 32 52 1.00839 $w=3.98e-07 $l=3.5e-08 $layer=LI1_cond $X=1.685 $Y=1.57
+ $X2=1.685 $Y2=1.605
r179 31 49 3.24963 $w=4e-07 $l=2.85e-07 $layer=LI1_cond $X=1.685 $Y=1.33
+ $X2=1.685 $Y2=1.045
r180 31 32 6.91466 $w=3.98e-07 $l=2.4e-07 $layer=LI1_cond $X=1.685 $Y=1.33
+ $X2=1.685 $Y2=1.57
r181 27 49 3.6487 $w=3.3e-07 $l=2.52982e-07 $layer=LI1_cond $X=1.485 $Y=1.165
+ $X2=1.685 $Y2=1.045
r182 27 29 6.46067 $w=3.28e-07 $l=1.85e-07 $layer=LI1_cond $X=1.485 $Y=1.165
+ $X2=1.3 $Y2=1.165
r183 23 25 128.191 $w=1.5e-07 $l=2.5e-07 $layer=POLY_cond $X=3.605 $Y=1.185
+ $X2=3.855 $Y2=1.185
r184 20 22 91.58 $w=1.5e-07 $l=2.85e-07 $layer=POLY_cond $X=3.87 $Y=2.465
+ $X2=3.87 $Y2=2.75
r185 19 20 36.0588 $w=1.8e-07 $l=9e-08 $layer=POLY_cond $X=3.87 $Y=2.375
+ $X2=3.87 $Y2=2.465
r186 18 68 16.9318 $w=1.8e-07 $l=1.65e-07 $layer=POLY_cond $X=3.87 $Y=1.735
+ $X2=3.87 $Y2=1.57
r187 18 19 248.774 $w=1.8e-07 $l=6.4e-07 $layer=POLY_cond $X=3.87 $Y=1.735
+ $X2=3.87 $Y2=2.375
r188 17 66 21.2229 $w=1.5e-07 $l=1.65e-07 $layer=POLY_cond $X=3.855 $Y=1.405
+ $X2=3.855 $Y2=1.57
r189 16 25 2.83073 $w=1.5e-07 $l=7.5e-08 $layer=POLY_cond $X=3.855 $Y=1.26
+ $X2=3.855 $Y2=1.185
r190 16 17 74.3511 $w=1.5e-07 $l=1.45e-07 $layer=POLY_cond $X=3.855 $Y=1.26
+ $X2=3.855 $Y2=1.405
r191 13 23 2.83073 $w=1.5e-07 $l=7.5e-08 $layer=POLY_cond $X=3.605 $Y=1.11
+ $X2=3.605 $Y2=1.185
r192 13 15 126.927 $w=1.5e-07 $l=3.95e-07 $layer=POLY_cond $X=3.605 $Y=1.11
+ $X2=3.605 $Y2=0.715
r193 10 64 12.359 $w=5.46e-07 $l=4.14126e-07 $layer=POLY_cond $X=2.355 $Y=1.185
+ $X2=2.215 $Y2=1.535
r194 10 12 142.993 $w=1.5e-07 $l=4.45e-07 $layer=POLY_cond $X=2.355 $Y=1.185
+ $X2=2.355 $Y2=0.74
r195 7 64 33.6458 $w=1.5e-07 $l=3.5e-07 $layer=POLY_cond $X=2.215 $Y=1.885
+ $X2=2.215 $Y2=1.535
r196 7 9 159.06 $w=1.5e-07 $l=4.95e-07 $layer=POLY_cond $X=2.215 $Y=1.885
+ $X2=2.215 $Y2=2.38
r197 2 44 300 $w=1.7e-07 $l=2.10357e-07 $layer=licon1_PDIFF $count=2 $X=1.15
+ $Y=2.12 $X2=1.3 $Y2=2.265
r198 1 29 182 $w=1.7e-07 $l=6.61306e-07 $layer=licon1_NDIFF $count=1 $X=1.16
+ $Y=0.57 $X2=1.3 $Y2=1.165
.ends

.subckt PM_SKY130_FD_SC_HS__DLXTN_4%A_27_115# 1 2 8 9 11 12 14 17 20 21 22 24 25
+ 26 28 34 39 43
r115 40 43 7.97426 $w=2.72e-07 $l=4.5e-08 $layer=POLY_cond $X=2.835 $Y=1.33
+ $X2=2.88 $Y2=1.33
r116 39 40 145.28 $w=1.7e-07 $l=1.7e-07 $layer=licon1_POLY $count=1 $X=2.835
+ $Y=1.385 $X2=2.835 $Y2=1.385
r117 36 39 9.60369 $w=3.28e-07 $l=2.75e-07 $layer=LI1_cond $X=2.56 $Y=1.385
+ $X2=2.835 $Y2=1.385
r118 30 31 10.0885 $w=5.2e-07 $l=4.3e-07 $layer=LI1_cond $X=0.28 $Y=0.842
+ $X2=0.71 $Y2=0.842
r119 28 36 4.62375 $w=1.7e-07 $l=1.65e-07 $layer=LI1_cond $X=2.56 $Y=1.22
+ $X2=2.56 $Y2=1.385
r120 27 28 51.8663 $w=1.68e-07 $l=7.95e-07 $layer=LI1_cond $X=2.56 $Y=0.425
+ $X2=2.56 $Y2=1.22
r121 25 27 6.81649 $w=1.7e-07 $l=1.20208e-07 $layer=LI1_cond $X=2.475 $Y=0.34
+ $X2=2.56 $Y2=0.425
r122 25 26 75.6791 $w=1.68e-07 $l=1.16e-06 $layer=LI1_cond $X=2.475 $Y=0.34
+ $X2=1.315 $Y2=0.34
r123 23 26 6.81649 $w=1.7e-07 $l=1.20208e-07 $layer=LI1_cond $X=1.23 $Y=0.425
+ $X2=1.315 $Y2=0.34
r124 23 24 15.3316 $w=1.68e-07 $l=2.35e-07 $layer=LI1_cond $X=1.23 $Y=0.425
+ $X2=1.23 $Y2=0.66
r125 22 31 7.9572 $w=5.2e-07 $l=1.32868e-07 $layer=LI1_cond $X=0.795 $Y=0.745
+ $X2=0.71 $Y2=0.842
r126 21 24 6.81649 $w=1.7e-07 $l=1.20208e-07 $layer=LI1_cond $X=1.145 $Y=0.745
+ $X2=1.23 $Y2=0.66
r127 21 22 22.8342 $w=1.68e-07 $l=3.5e-07 $layer=LI1_cond $X=1.145 $Y=0.745
+ $X2=0.795 $Y2=0.745
r128 20 34 0.716491 $w=1.7e-07 $l=8.5e-08 $layer=LI1_cond $X=0.71 $Y=1.95
+ $X2=0.71 $Y2=2.035
r129 19 31 7.40362 $w=1.7e-07 $l=2.88e-07 $layer=LI1_cond $X=0.71 $Y=1.13
+ $X2=0.71 $Y2=0.842
r130 19 20 53.4973 $w=1.68e-07 $l=8.2e-07 $layer=LI1_cond $X=0.71 $Y=1.13
+ $X2=0.71 $Y2=1.95
r131 15 34 26.7487 $w=1.68e-07 $l=4.1e-07 $layer=LI1_cond $X=0.3 $Y=2.035
+ $X2=0.71 $Y2=2.035
r132 15 17 5.06376 $w=3.28e-07 $l=1.45e-07 $layer=LI1_cond $X=0.3 $Y=2.12
+ $X2=0.3 $Y2=2.265
r133 12 43 59.364 $w=2.72e-07 $l=4.3119e-07 $layer=POLY_cond $X=3.215 $Y=1.11
+ $X2=2.88 $Y2=1.33
r134 12 14 126.927 $w=1.5e-07 $l=3.95e-07 $layer=POLY_cond $X=3.215 $Y=1.11
+ $X2=3.215 $Y2=0.715
r135 9 11 184.767 $w=1.5e-07 $l=5.75e-07 $layer=POLY_cond $X=2.88 $Y=1.885
+ $X2=2.88 $Y2=2.46
r136 8 9 36.0588 $w=1.8e-07 $l=9e-08 $layer=POLY_cond $X=2.88 $Y=1.795 $X2=2.88
+ $Y2=1.885
r137 7 43 12.4592 $w=1.8e-07 $l=2.2e-07 $layer=POLY_cond $X=2.88 $Y=1.55
+ $X2=2.88 $Y2=1.33
r138 7 8 95.2339 $w=1.8e-07 $l=2.45e-07 $layer=POLY_cond $X=2.88 $Y=1.55
+ $X2=2.88 $Y2=1.795
r139 2 17 300 $w=1.7e-07 $l=2.05061e-07 $layer=licon1_PDIFF $count=2 $X=0.155
+ $Y=2.12 $X2=0.3 $Y2=2.265
r140 1 30 182 $w=1.7e-07 $l=3.29621e-07 $layer=licon1_NDIFF $count=1 $X=0.135
+ $Y=0.575 $X2=0.28 $Y2=0.84
.ends

.subckt PM_SKY130_FD_SC_HS__DLXTN_4%A_369_392# 1 2 7 9 10 12 15 17 21 23 26 30
+ 32 38
c96 30 0 6.91456e-20 $X=3.375 $Y=1.635
c97 26 0 1.65063e-19 $X=2.065 $Y=1.805
c98 23 0 6.33553e-20 $X=4.28 $Y=0.34
c99 21 0 1.82656e-20 $X=3.485 $Y=0.38
r100 30 33 5.93683 $w=3.28e-07 $l=1.7e-07 $layer=LI1_cond $X=3.375 $Y=1.635
+ $X2=3.375 $Y2=1.805
r101 30 32 8.46218 $w=3.28e-07 $l=1.65e-07 $layer=LI1_cond $X=3.375 $Y=1.635
+ $X2=3.375 $Y2=1.47
r102 30 31 145.28 $w=1.7e-07 $l=1.7e-07 $layer=licon1_POLY $count=1 $X=3.375
+ $Y=1.635 $X2=3.375 $Y2=1.635
r103 26 28 11.7883 $w=3.26e-07 $l=3.15e-07 $layer=LI1_cond $X=2.065 $Y=1.805
+ $X2=2.065 $Y2=2.12
r104 24 38 20.9834 $w=3.3e-07 $l=1.2e-07 $layer=POLY_cond $X=4.28 $Y=0.34
+ $X2=4.4 $Y2=0.34
r105 23 24 145.28 $w=1.7e-07 $l=1.7e-07 $layer=licon1_POLY $count=1 $X=4.28
+ $Y=0.34 $X2=4.28 $Y2=0.34
r106 21 23 36.6477 $w=2.48e-07 $l=7.95e-07 $layer=LI1_cond $X=3.485 $Y=0.38
+ $X2=4.28 $Y2=0.38
r107 19 21 7.14316 $w=2.5e-07 $l=1.62019e-07 $layer=LI1_cond $X=3.4 $Y=0.505
+ $X2=3.485 $Y2=0.38
r108 19 32 62.9572 $w=1.68e-07 $l=9.65e-07 $layer=LI1_cond $X=3.4 $Y=0.505
+ $X2=3.4 $Y2=1.47
r109 18 26 4.55145 $w=1.7e-07 $l=2.4e-07 $layer=LI1_cond $X=2.305 $Y=1.805
+ $X2=2.065 $Y2=1.805
r110 17 33 4.62375 $w=1.7e-07 $l=1.65e-07 $layer=LI1_cond $X=3.21 $Y=1.805
+ $X2=3.375 $Y2=1.805
r111 17 18 59.0428 $w=1.68e-07 $l=9.05e-07 $layer=LI1_cond $X=3.21 $Y=1.805
+ $X2=2.305 $Y2=1.805
r112 13 26 3.87481 $w=3.26e-07 $l=1.51658e-07 $layer=LI1_cond $X=2.18 $Y=1.72
+ $X2=2.065 $Y2=1.805
r113 13 15 39.644 $w=2.48e-07 $l=8.6e-07 $layer=LI1_cond $X=2.18 $Y=1.72
+ $X2=2.18 $Y2=0.86
r114 10 38 21.2229 $w=1.5e-07 $l=1.65e-07 $layer=POLY_cond $X=4.4 $Y=0.505
+ $X2=4.4 $Y2=0.34
r115 10 12 102.827 $w=1.5e-07 $l=3.2e-07 $layer=POLY_cond $X=4.4 $Y=0.505
+ $X2=4.4 $Y2=0.825
r116 7 31 52.2586 $w=2.99e-07 $l=2.85044e-07 $layer=POLY_cond $X=3.3 $Y=1.885
+ $X2=3.375 $Y2=1.635
r117 7 9 184.767 $w=1.5e-07 $l=5.75e-07 $layer=POLY_cond $X=3.3 $Y=1.885 $X2=3.3
+ $Y2=2.46
r118 2 28 600 $w=1.7e-07 $l=2.20907e-07 $layer=licon1_PDIFF $count=1 $X=1.845
+ $Y=1.96 $X2=1.99 $Y2=2.12
r119 1 15 182 $w=1.7e-07 $l=5.57808e-07 $layer=licon1_NDIFF $count=1 $X=1.995
+ $Y=0.37 $X2=2.14 $Y2=0.86
.ends

.subckt PM_SKY130_FD_SC_HS__DLXTN_4%A_840_395# 1 2 7 9 12 16 18 20 21 25 27 29
+ 32 34 36 39 41 43 44 53 56 58 62 64 68 72 74 82
c154 62 0 3.0581e-19 $X=6.305 $Y=1.485
c155 58 0 9.68457e-20 $X=5.745 $Y=1.82
c156 53 0 1.44963e-19 $X=5.485 $Y=0.54
c157 12 0 6.33553e-20 $X=4.76 $Y=0.825
r158 82 83 1.88773 $w=3.83e-07 $l=1.5e-08 $layer=POLY_cond $X=7.64 $Y=1.542
+ $X2=7.655 $Y2=1.542
r159 79 80 5.03394 $w=3.83e-07 $l=4e-08 $layer=POLY_cond $X=7.165 $Y=1.542
+ $X2=7.205 $Y2=1.542
r160 78 79 51.5979 $w=3.83e-07 $l=4.1e-07 $layer=POLY_cond $X=6.755 $Y=1.542
+ $X2=7.165 $Y2=1.542
r161 77 78 2.51697 $w=3.83e-07 $l=2e-08 $layer=POLY_cond $X=6.735 $Y=1.542
+ $X2=6.755 $Y2=1.542
r162 65 82 39.6423 $w=3.83e-07 $l=3.15e-07 $layer=POLY_cond $X=7.325 $Y=1.542
+ $X2=7.64 $Y2=1.542
r163 65 80 15.1018 $w=3.83e-07 $l=1.2e-07 $layer=POLY_cond $X=7.325 $Y=1.542
+ $X2=7.205 $Y2=1.542
r164 64 65 72.64 $w=1.7e-07 $l=3.4e-07 $layer=licon1_POLY $count=2 $X=7.325
+ $Y=1.485 $X2=7.325 $Y2=1.485
r165 61 64 35.621 $w=3.28e-07 $l=1.02e-06 $layer=LI1_cond $X=6.305 $Y=1.485
+ $X2=7.325 $Y2=1.485
r166 61 62 72.64 $w=1.7e-07 $l=3.4e-07 $layer=licon1_POLY $count=2 $X=6.305
+ $Y=1.485 $X2=6.305 $Y2=1.485
r167 59 74 0.89609 $w=3.3e-07 $l=8.5e-08 $layer=LI1_cond $X=5.83 $Y=1.485
+ $X2=5.745 $Y2=1.485
r168 59 61 16.5882 $w=3.28e-07 $l=4.75e-07 $layer=LI1_cond $X=5.83 $Y=1.485
+ $X2=6.305 $Y2=1.485
r169 58 68 8.71429 $w=3.71e-07 $l=3.66545e-07 $layer=LI1_cond $X=5.745 $Y=1.82
+ $X2=5.48 $Y2=2.062
r170 57 74 8.61065 $w=1.7e-07 $l=1.65e-07 $layer=LI1_cond $X=5.745 $Y=1.65
+ $X2=5.745 $Y2=1.485
r171 57 58 11.0909 $w=1.68e-07 $l=1.7e-07 $layer=LI1_cond $X=5.745 $Y=1.65
+ $X2=5.745 $Y2=1.82
r172 56 74 8.61065 $w=1.7e-07 $l=1.65e-07 $layer=LI1_cond $X=5.745 $Y=1.32
+ $X2=5.745 $Y2=1.485
r173 55 72 0.716491 $w=1.7e-07 $l=8.5e-08 $layer=LI1_cond $X=5.745 $Y=1.15
+ $X2=5.745 $Y2=1.065
r174 55 56 11.0909 $w=1.68e-07 $l=1.7e-07 $layer=LI1_cond $X=5.745 $Y=1.15
+ $X2=5.745 $Y2=1.32
r175 51 72 19.5722 $w=1.68e-07 $l=3e-07 $layer=LI1_cond $X=5.445 $Y=1.065
+ $X2=5.745 $Y2=1.065
r176 51 53 20.283 $w=2.48e-07 $l=4.4e-07 $layer=LI1_cond $X=5.445 $Y=0.98
+ $X2=5.445 $Y2=0.54
r177 46 47 145.28 $w=1.7e-07 $l=1.7e-07 $layer=licon1_POLY $count=1 $X=4.555
+ $Y=2.14 $X2=4.555 $Y2=2.14
r178 44 68 5.60386 $w=3.71e-07 $l=2.00237e-07 $layer=LI1_cond $X=5.315 $Y=2.14
+ $X2=5.48 $Y2=2.062
r179 44 46 26.5411 $w=3.28e-07 $l=7.6e-07 $layer=LI1_cond $X=5.315 $Y=2.14
+ $X2=4.555 $Y2=2.14
r180 41 83 24.8035 $w=1.5e-07 $l=2.23e-07 $layer=POLY_cond $X=7.655 $Y=1.765
+ $X2=7.655 $Y2=1.542
r181 41 43 204.047 $w=1.5e-07 $l=6.35e-07 $layer=POLY_cond $X=7.655 $Y=1.765
+ $X2=7.655 $Y2=2.4
r182 37 82 24.8035 $w=1.5e-07 $l=2.22e-07 $layer=POLY_cond $X=7.64 $Y=1.32
+ $X2=7.64 $Y2=1.542
r183 37 39 297.404 $w=1.5e-07 $l=5.8e-07 $layer=POLY_cond $X=7.64 $Y=1.32
+ $X2=7.64 $Y2=0.74
r184 34 80 24.8035 $w=1.5e-07 $l=2.23e-07 $layer=POLY_cond $X=7.205 $Y=1.765
+ $X2=7.205 $Y2=1.542
r185 34 36 204.047 $w=1.5e-07 $l=6.35e-07 $layer=POLY_cond $X=7.205 $Y=1.765
+ $X2=7.205 $Y2=2.4
r186 30 79 24.8035 $w=1.5e-07 $l=2.22e-07 $layer=POLY_cond $X=7.165 $Y=1.32
+ $X2=7.165 $Y2=1.542
r187 30 32 297.404 $w=1.5e-07 $l=5.8e-07 $layer=POLY_cond $X=7.165 $Y=1.32
+ $X2=7.165 $Y2=0.74
r188 27 78 24.8035 $w=1.5e-07 $l=2.23e-07 $layer=POLY_cond $X=6.755 $Y=1.765
+ $X2=6.755 $Y2=1.542
r189 27 29 204.047 $w=1.5e-07 $l=6.35e-07 $layer=POLY_cond $X=6.755 $Y=1.765
+ $X2=6.755 $Y2=2.4
r190 23 77 24.8035 $w=1.5e-07 $l=2.22e-07 $layer=POLY_cond $X=6.735 $Y=1.32
+ $X2=6.735 $Y2=1.542
r191 23 25 297.404 $w=1.5e-07 $l=5.8e-07 $layer=POLY_cond $X=6.735 $Y=1.32
+ $X2=6.735 $Y2=0.74
r192 22 62 5.03009 $w=3.3e-07 $l=1.15022e-07 $layer=POLY_cond $X=6.32 $Y=1.485
+ $X2=6.23 $Y2=1.542
r193 21 77 10.4949 $w=3.83e-07 $l=9.94987e-08 $layer=POLY_cond $X=6.66 $Y=1.485
+ $X2=6.735 $Y2=1.542
r194 21 22 59.4528 $w=3.3e-07 $l=3.4e-07 $layer=POLY_cond $X=6.66 $Y=1.485
+ $X2=6.32 $Y2=1.485
r195 18 62 37.0704 $w=1.5e-07 $l=2.23e-07 $layer=POLY_cond $X=6.23 $Y=1.765
+ $X2=6.23 $Y2=1.542
r196 18 20 204.047 $w=1.5e-07 $l=6.35e-07 $layer=POLY_cond $X=6.23 $Y=1.765
+ $X2=6.23 $Y2=2.4
r197 14 62 37.0704 $w=1.5e-07 $l=2.29377e-07 $layer=POLY_cond $X=6.215 $Y=1.32
+ $X2=6.23 $Y2=1.542
r198 14 16 297.404 $w=1.5e-07 $l=5.8e-07 $layer=POLY_cond $X=6.215 $Y=1.32
+ $X2=6.215 $Y2=0.74
r199 10 47 67.2473 $w=3.67e-07 $l=4.86559e-07 $layer=POLY_cond $X=4.76 $Y=1.76
+ $X2=4.517 $Y2=2.14
r200 10 12 479.436 $w=1.5e-07 $l=9.35e-07 $layer=POLY_cond $X=4.76 $Y=1.76
+ $X2=4.76 $Y2=0.825
r201 7 47 60.0239 $w=3.67e-07 $l=4.23556e-07 $layer=POLY_cond $X=4.29 $Y=2.465
+ $X2=4.517 $Y2=2.14
r202 7 9 91.58 $w=1.5e-07 $l=2.85e-07 $layer=POLY_cond $X=4.29 $Y=2.465 $X2=4.29
+ $Y2=2.75
r203 2 68 300 $w=1.7e-07 $l=2.47083e-07 $layer=licon1_PDIFF $count=2 $X=5.295
+ $Y=2.12 $X2=5.48 $Y2=2.265
r204 1 53 91 $w=1.7e-07 $l=2.03286e-07 $layer=licon1_NDIFF $count=2 $X=5.345
+ $Y=0.395 $X2=5.485 $Y2=0.54
.ends

.subckt PM_SKY130_FD_SC_HS__DLXTN_4%A_675_392# 1 2 8 9 11 14 18 21 22 24 27 28
+ 32 33 35 39 40 45
c109 35 0 1.4938e-19 $X=5.325 $Y=1.485
c110 18 0 3.11092e-19 $X=5.7 $Y=0.715
r111 45 46 3.46264 $w=3.48e-07 $l=2.5e-08 $layer=POLY_cond $X=5.7 $Y=1.53
+ $X2=5.725 $Y2=1.53
r112 42 43 6.92529 $w=3.48e-07 $l=5e-08 $layer=POLY_cond $X=5.22 $Y=1.53
+ $X2=5.27 $Y2=1.53
r113 39 40 9.6413 $w=5.18e-07 $l=1.65e-07 $layer=LI1_cond $X=3.62 $Y=2.225
+ $X2=3.62 $Y2=2.06
r114 36 45 51.9397 $w=3.48e-07 $l=3.75e-07 $layer=POLY_cond $X=5.325 $Y=1.53
+ $X2=5.7 $Y2=1.53
r115 36 43 7.61782 $w=3.48e-07 $l=5.5e-08 $layer=POLY_cond $X=5.325 $Y=1.53
+ $X2=5.27 $Y2=1.53
r116 35 36 145.28 $w=1.7e-07 $l=1.7e-07 $layer=licon1_POLY $count=1 $X=5.325
+ $Y=1.485 $X2=5.325 $Y2=1.485
r117 33 35 21.1281 $w=3.28e-07 $l=6.05e-07 $layer=LI1_cond $X=4.72 $Y=1.485
+ $X2=5.325 $Y2=1.485
r118 32 33 7.76618 $w=3.3e-07 $l=2.03101e-07 $layer=LI1_cond $X=4.635 $Y=1.32
+ $X2=4.72 $Y2=1.485
r119 31 32 17.2888 $w=1.68e-07 $l=2.65e-07 $layer=LI1_cond $X=4.635 $Y=1.055
+ $X2=4.635 $Y2=1.32
r120 28 30 10.6514 $w=3.28e-07 $l=3.05e-07 $layer=LI1_cond $X=3.88 $Y=0.89
+ $X2=4.185 $Y2=0.89
r121 27 31 7.76618 $w=3.3e-07 $l=2.03101e-07 $layer=LI1_cond $X=4.55 $Y=0.89
+ $X2=4.635 $Y2=1.055
r122 27 30 12.7467 $w=3.28e-07 $l=3.65e-07 $layer=LI1_cond $X=4.55 $Y=0.89
+ $X2=4.185 $Y2=0.89
r123 25 28 7.76618 $w=3.3e-07 $l=2.03101e-07 $layer=LI1_cond $X=3.795 $Y=1.055
+ $X2=3.88 $Y2=0.89
r124 25 40 65.5668 $w=1.68e-07 $l=1.005e-06 $layer=LI1_cond $X=3.795 $Y=1.055
+ $X2=3.795 $Y2=2.06
r125 22 24 159.06 $w=1.5e-07 $l=4.95e-07 $layer=POLY_cond $X=5.725 $Y=2.045
+ $X2=5.725 $Y2=2.54
r126 21 22 36.0588 $w=1.8e-07 $l=9e-08 $layer=POLY_cond $X=5.725 $Y=1.955
+ $X2=5.725 $Y2=2.045
r127 20 46 18.1727 $w=1.8e-07 $l=2.1e-07 $layer=POLY_cond $X=5.725 $Y=1.74
+ $X2=5.725 $Y2=1.53
r128 20 21 83.5726 $w=1.8e-07 $l=2.15e-07 $layer=POLY_cond $X=5.725 $Y=1.74
+ $X2=5.725 $Y2=1.955
r129 16 45 22.4912 $w=1.5e-07 $l=2.1e-07 $layer=POLY_cond $X=5.7 $Y=1.32 $X2=5.7
+ $Y2=1.53
r130 16 18 310.223 $w=1.5e-07 $l=6.05e-07 $layer=POLY_cond $X=5.7 $Y=1.32
+ $X2=5.7 $Y2=0.715
r131 12 43 22.4912 $w=1.5e-07 $l=2.1e-07 $layer=POLY_cond $X=5.27 $Y=1.32
+ $X2=5.27 $Y2=1.53
r132 12 14 310.223 $w=1.5e-07 $l=6.05e-07 $layer=POLY_cond $X=5.27 $Y=1.32
+ $X2=5.27 $Y2=0.715
r133 9 11 159.06 $w=1.5e-07 $l=4.95e-07 $layer=POLY_cond $X=5.22 $Y=2.045
+ $X2=5.22 $Y2=2.54
r134 8 9 36.0588 $w=1.8e-07 $l=9e-08 $layer=POLY_cond $X=5.22 $Y=1.955 $X2=5.22
+ $Y2=2.045
r135 7 42 18.1727 $w=1.8e-07 $l=2.1e-07 $layer=POLY_cond $X=5.22 $Y=1.74
+ $X2=5.22 $Y2=1.53
r136 7 8 83.5726 $w=1.8e-07 $l=2.15e-07 $layer=POLY_cond $X=5.22 $Y=1.74
+ $X2=5.22 $Y2=1.955
r137 2 39 300 $w=1.7e-07 $l=3.31625e-07 $layer=licon1_PDIFF $count=2 $X=3.375
+ $Y=1.96 $X2=3.525 $Y2=2.225
r138 1 30 91 $w=1.7e-07 $l=7.10634e-07 $layer=licon1_NDIFF $count=2 $X=3.68
+ $Y=0.395 $X2=4.185 $Y2=0.89
.ends

.subckt PM_SKY130_FD_SC_HS__DLXTN_4%VPWR 1 2 3 4 5 6 21 25 29 33 35 37 39 41 46
+ 62 67 72 78 81 85 89 91 94 98
r96 97 98 9.3 $w=1.7e-07 $l=1.7e-07 $layer=mcon $count=1 $X=7.92 $Y=3.33
+ $X2=7.92 $Y2=3.33
r97 94 95 9.3 $w=1.7e-07 $l=1.7e-07 $layer=mcon $count=1 $X=6.96 $Y=3.33
+ $X2=6.96 $Y2=3.33
r98 91 92 9.3 $w=1.7e-07 $l=1.7e-07 $layer=mcon $count=1 $X=6 $Y=3.33 $X2=6
+ $Y2=3.33
r99 87 89 10.7168 $w=8.23e-07 $l=1.05e-07 $layer=LI1_cond $X=5.04 $Y=3.002
+ $X2=5.145 $Y2=3.002
r100 87 88 4.65 $w=1.7e-07 $l=3.4e-07 $layer=mcon $count=2 $X=5.04 $Y=3.33
+ $X2=5.04 $Y2=3.33
r101 84 87 0.869875 $w=8.23e-07 $l=6e-08 $layer=LI1_cond $X=4.98 $Y=3.002
+ $X2=5.04 $Y2=3.002
r102 84 85 17.7483 $w=8.23e-07 $l=5.9e-07 $layer=LI1_cond $X=4.98 $Y=3.002
+ $X2=4.39 $Y2=3.002
r103 81 82 9.3 $w=1.7e-07 $l=1.7e-07 $layer=mcon $count=1 $X=2.64 $Y=3.33
+ $X2=2.64 $Y2=3.33
r104 78 79 9.3 $w=1.7e-07 $l=1.7e-07 $layer=mcon $count=1 $X=0.72 $Y=3.33
+ $X2=0.72 $Y2=3.33
r105 76 98 0.133793 $w=4.9e-07 $l=4.8e-07 $layer=MET1_cond $X=7.44 $Y=3.33
+ $X2=7.92 $Y2=3.33
r106 76 95 0.133793 $w=4.9e-07 $l=4.8e-07 $layer=MET1_cond $X=7.44 $Y=3.33
+ $X2=6.96 $Y2=3.33
r107 75 76 9.3 $w=1.7e-07 $l=1.7e-07 $layer=mcon $count=1 $X=7.44 $Y=3.33
+ $X2=7.44 $Y2=3.33
r108 73 94 8.61065 $w=1.7e-07 $l=1.65e-07 $layer=LI1_cond $X=7.145 $Y=3.33
+ $X2=6.98 $Y2=3.33
r109 73 75 19.246 $w=1.68e-07 $l=2.95e-07 $layer=LI1_cond $X=7.145 $Y=3.33
+ $X2=7.44 $Y2=3.33
r110 72 97 4.73651 $w=1.7e-07 $l=2.22e-07 $layer=LI1_cond $X=7.715 $Y=3.33
+ $X2=7.937 $Y2=3.33
r111 72 75 17.9412 $w=1.68e-07 $l=2.75e-07 $layer=LI1_cond $X=7.715 $Y=3.33
+ $X2=7.44 $Y2=3.33
r112 71 95 0.133793 $w=4.9e-07 $l=4.8e-07 $layer=MET1_cond $X=6.48 $Y=3.33
+ $X2=6.96 $Y2=3.33
r113 71 92 0.133793 $w=4.9e-07 $l=4.8e-07 $layer=MET1_cond $X=6.48 $Y=3.33 $X2=6
+ $Y2=3.33
r114 70 71 9.3 $w=1.7e-07 $l=1.7e-07 $layer=mcon $count=1 $X=6.48 $Y=3.33
+ $X2=6.48 $Y2=3.33
r115 68 91 8.61065 $w=1.7e-07 $l=1.65e-07 $layer=LI1_cond $X=6.145 $Y=3.33
+ $X2=5.98 $Y2=3.33
r116 68 70 21.8556 $w=1.68e-07 $l=3.35e-07 $layer=LI1_cond $X=6.145 $Y=3.33
+ $X2=6.48 $Y2=3.33
r117 67 94 8.61065 $w=1.7e-07 $l=1.65e-07 $layer=LI1_cond $X=6.815 $Y=3.33
+ $X2=6.98 $Y2=3.33
r118 67 70 21.8556 $w=1.68e-07 $l=3.35e-07 $layer=LI1_cond $X=6.815 $Y=3.33
+ $X2=6.48 $Y2=3.33
r119 66 92 0.133793 $w=4.9e-07 $l=4.8e-07 $layer=MET1_cond $X=5.52 $Y=3.33 $X2=6
+ $Y2=3.33
r120 66 88 0.133793 $w=4.9e-07 $l=4.8e-07 $layer=MET1_cond $X=5.52 $Y=3.33
+ $X2=5.04 $Y2=3.33
r121 65 89 24.4652 $w=1.68e-07 $l=3.75e-07 $layer=LI1_cond $X=5.52 $Y=3.33
+ $X2=5.145 $Y2=3.33
r122 65 66 9.3 $w=1.7e-07 $l=1.7e-07 $layer=mcon $count=1 $X=5.52 $Y=3.33
+ $X2=5.52 $Y2=3.33
r123 62 91 8.61065 $w=1.7e-07 $l=1.65e-07 $layer=LI1_cond $X=5.815 $Y=3.33
+ $X2=5.98 $Y2=3.33
r124 62 65 19.246 $w=1.68e-07 $l=2.95e-07 $layer=LI1_cond $X=5.815 $Y=3.33
+ $X2=5.52 $Y2=3.33
r125 60 85 20.2246 $w=1.68e-07 $l=3.1e-07 $layer=LI1_cond $X=4.08 $Y=3.33
+ $X2=4.39 $Y2=3.33
r126 58 82 0.133793 $w=4.9e-07 $l=4.8e-07 $layer=MET1_cond $X=3.12 $Y=3.33
+ $X2=2.64 $Y2=3.33
r127 57 60 62.631 $w=1.68e-07 $l=9.6e-07 $layer=LI1_cond $X=3.12 $Y=3.33
+ $X2=4.08 $Y2=3.33
r128 57 58 6.2 $w=1.7e-07 $l=2.55e-07 $layer=mcon $count=1 $X=3.12 $Y=3.33
+ $X2=3.12 $Y2=3.33
r129 55 81 10.7288 $w=1.7e-07 $l=2.3e-07 $layer=LI1_cond $X=2.82 $Y=3.33
+ $X2=2.59 $Y2=3.33
r130 55 57 19.5722 $w=1.68e-07 $l=3e-07 $layer=LI1_cond $X=2.82 $Y=3.33 $X2=3.12
+ $Y2=3.33
r131 53 82 0.133793 $w=4.9e-07 $l=4.8e-07 $layer=MET1_cond $X=2.16 $Y=3.33
+ $X2=2.64 $Y2=3.33
r132 52 53 6.2 $w=1.7e-07 $l=2.55e-07 $layer=mcon $count=1 $X=2.16 $Y=3.33
+ $X2=2.16 $Y2=3.33
r133 50 53 0.267585 $w=4.9e-07 $l=9.6e-07 $layer=MET1_cond $X=1.2 $Y=3.33
+ $X2=2.16 $Y2=3.33
r134 50 79 0.133793 $w=4.9e-07 $l=4.8e-07 $layer=MET1_cond $X=1.2 $Y=3.33
+ $X2=0.72 $Y2=3.33
r135 49 52 62.631 $w=1.68e-07 $l=9.6e-07 $layer=LI1_cond $X=1.2 $Y=3.33 $X2=2.16
+ $Y2=3.33
r136 49 50 6.2 $w=1.7e-07 $l=2.55e-07 $layer=mcon $count=1 $X=1.2 $Y=3.33
+ $X2=1.2 $Y2=3.33
r137 47 78 8.61065 $w=1.7e-07 $l=1.65e-07 $layer=LI1_cond $X=0.965 $Y=3.33
+ $X2=0.8 $Y2=3.33
r138 47 49 15.3316 $w=1.68e-07 $l=2.35e-07 $layer=LI1_cond $X=0.965 $Y=3.33
+ $X2=1.2 $Y2=3.33
r139 46 81 10.7288 $w=1.7e-07 $l=2.3e-07 $layer=LI1_cond $X=2.36 $Y=3.33
+ $X2=2.59 $Y2=3.33
r140 46 52 13.0481 $w=1.68e-07 $l=2e-07 $layer=LI1_cond $X=2.36 $Y=3.33 $X2=2.16
+ $Y2=3.33
r141 44 79 0.133793 $w=4.9e-07 $l=4.8e-07 $layer=MET1_cond $X=0.24 $Y=3.33
+ $X2=0.72 $Y2=3.33
r142 43 44 9.3 $w=1.7e-07 $l=1.7e-07 $layer=mcon $count=1 $X=0.24 $Y=3.33
+ $X2=0.24 $Y2=3.33
r143 41 78 8.61065 $w=1.7e-07 $l=1.65e-07 $layer=LI1_cond $X=0.635 $Y=3.33
+ $X2=0.8 $Y2=3.33
r144 41 43 25.7701 $w=1.68e-07 $l=3.95e-07 $layer=LI1_cond $X=0.635 $Y=3.33
+ $X2=0.24 $Y2=3.33
r145 39 88 0.267585 $w=4.9e-07 $l=9.6e-07 $layer=MET1_cond $X=4.08 $Y=3.33
+ $X2=5.04 $Y2=3.33
r146 39 58 0.267585 $w=4.9e-07 $l=9.6e-07 $layer=MET1_cond $X=4.08 $Y=3.33
+ $X2=3.12 $Y2=3.33
r147 39 60 6.2 $w=1.7e-07 $l=2.55e-07 $layer=mcon $count=1 $X=4.08 $Y=3.33
+ $X2=4.08 $Y2=3.33
r148 35 97 3.02966 $w=3.3e-07 $l=1.09864e-07 $layer=LI1_cond $X=7.88 $Y=3.245
+ $X2=7.937 $Y2=3.33
r149 35 37 29.3349 $w=3.28e-07 $l=8.4e-07 $layer=LI1_cond $X=7.88 $Y=3.245
+ $X2=7.88 $Y2=2.405
r150 31 94 0.89609 $w=3.3e-07 $l=8.5e-08 $layer=LI1_cond $X=6.98 $Y=3.245
+ $X2=6.98 $Y2=3.33
r151 31 33 34.2241 $w=3.28e-07 $l=9.8e-07 $layer=LI1_cond $X=6.98 $Y=3.245
+ $X2=6.98 $Y2=2.265
r152 27 91 0.89609 $w=3.3e-07 $l=8.5e-08 $layer=LI1_cond $X=5.98 $Y=3.245
+ $X2=5.98 $Y2=3.33
r153 27 29 32.1287 $w=3.28e-07 $l=9.2e-07 $layer=LI1_cond $X=5.98 $Y=3.245
+ $X2=5.98 $Y2=2.325
r154 23 81 1.85547 $w=4.6e-07 $l=8.5e-08 $layer=LI1_cond $X=2.59 $Y=3.245
+ $X2=2.59 $Y2=3.33
r155 23 25 11.1807 $w=4.58e-07 $l=4.3e-07 $layer=LI1_cond $X=2.59 $Y=3.245
+ $X2=2.59 $Y2=2.815
r156 19 78 0.89609 $w=3.3e-07 $l=8.5e-08 $layer=LI1_cond $X=0.8 $Y=3.245 $X2=0.8
+ $Y2=3.33
r157 19 21 27.5888 $w=3.28e-07 $l=7.9e-07 $layer=LI1_cond $X=0.8 $Y=3.245
+ $X2=0.8 $Y2=2.455
r158 6 37 300 $w=1.7e-07 $l=6.3559e-07 $layer=licon1_PDIFF $count=2 $X=7.73
+ $Y=1.84 $X2=7.88 $Y2=2.405
r159 5 33 300 $w=1.7e-07 $l=4.94343e-07 $layer=licon1_PDIFF $count=2 $X=6.83
+ $Y=1.84 $X2=6.98 $Y2=2.265
r160 4 29 300 $w=1.7e-07 $l=2.80936e-07 $layer=licon1_PDIFF $count=2 $X=5.8
+ $Y=2.12 $X2=5.98 $Y2=2.325
r161 3 84 300 $w=1.7e-07 $l=7.14458e-07 $layer=licon1_PDIFF $count=2 $X=4.365
+ $Y=2.54 $X2=4.98 $Y2=2.755
r162 2 25 600 $w=1.7e-07 $l=9.93743e-07 $layer=licon1_PDIFF $count=1 $X=2.29
+ $Y=1.96 $X2=2.59 $Y2=2.815
r163 1 21 300 $w=1.7e-07 $l=4.2335e-07 $layer=licon1_PDIFF $count=2 $X=0.6
+ $Y=2.12 $X2=0.8 $Y2=2.455
.ends

.subckt PM_SKY130_FD_SC_HS__DLXTN_4%Q 1 2 3 4 15 17 19 21 22 27 31 33 37 39 40
+ 41 52
c73 22 0 1.66129e-19 $X=6.615 $Y=1.065
c74 17 0 1.5643e-19 $X=6.48 $Y=1.99
r75 51 52 6.71605 $w=3.28e-07 $l=1.15e-07 $layer=LI1_cond $X=7.43 $Y=1.985
+ $X2=7.315 $Y2=1.985
r76 41 51 17.112 $w=3.28e-07 $l=4.9e-07 $layer=LI1_cond $X=7.92 $Y=1.985
+ $X2=7.43 $Y2=1.985
r77 41 45 2.85155 $w=2.3e-07 $l=1.65e-07 $layer=LI1_cond $X=7.92 $Y=1.985
+ $X2=7.92 $Y2=1.82
r78 40 45 7.76646 $w=2.28e-07 $l=1.55e-07 $layer=LI1_cond $X=7.92 $Y=1.665
+ $X2=7.92 $Y2=1.82
r79 39 40 18.5393 $w=2.28e-07 $l=3.7e-07 $layer=LI1_cond $X=7.92 $Y=1.295
+ $X2=7.92 $Y2=1.665
r80 38 39 7.2654 $w=2.28e-07 $l=1.45e-07 $layer=LI1_cond $X=7.92 $Y=1.15
+ $X2=7.92 $Y2=1.295
r81 34 37 7.02821 $w=1.7e-07 $l=1.25e-07 $layer=LI1_cond $X=7.545 $Y=1.065
+ $X2=7.42 $Y2=1.065
r82 33 38 7.01789 $w=1.7e-07 $l=1.51658e-07 $layer=LI1_cond $X=7.805 $Y=1.065
+ $X2=7.92 $Y2=1.15
r83 33 34 16.9626 $w=1.68e-07 $l=2.6e-07 $layer=LI1_cond $X=7.805 $Y=1.065
+ $X2=7.545 $Y2=1.065
r84 29 51 2.85155 $w=2.3e-07 $l=1.65e-07 $layer=LI1_cond $X=7.43 $Y=2.15
+ $X2=7.43 $Y2=1.985
r85 29 31 12.5266 $w=2.28e-07 $l=2.5e-07 $layer=LI1_cond $X=7.43 $Y=2.15
+ $X2=7.43 $Y2=2.4
r86 25 37 0.00168595 $w=2.5e-07 $l=8.5e-08 $layer=LI1_cond $X=7.42 $Y=0.98
+ $X2=7.42 $Y2=1.065
r87 25 27 21.4354 $w=2.48e-07 $l=4.65e-07 $layer=LI1_cond $X=7.42 $Y=0.98
+ $X2=7.42 $Y2=0.515
r88 24 36 5.12568 $w=1.7e-07 $l=1.65e-07 $layer=LI1_cond $X=6.645 $Y=1.905
+ $X2=6.48 $Y2=1.905
r89 24 52 43.7112 $w=1.68e-07 $l=6.7e-07 $layer=LI1_cond $X=6.645 $Y=1.905
+ $X2=7.315 $Y2=1.905
r90 21 37 7.02821 $w=1.7e-07 $l=1.25e-07 $layer=LI1_cond $X=7.295 $Y=1.065
+ $X2=7.42 $Y2=1.065
r91 21 22 44.3636 $w=1.68e-07 $l=6.8e-07 $layer=LI1_cond $X=7.295 $Y=1.065
+ $X2=6.615 $Y2=1.065
r92 17 36 2.6405 $w=3.3e-07 $l=8.5e-08 $layer=LI1_cond $X=6.48 $Y=1.99 $X2=6.48
+ $Y2=1.905
r93 17 19 28.8111 $w=3.28e-07 $l=8.25e-07 $layer=LI1_cond $X=6.48 $Y=1.99
+ $X2=6.48 $Y2=2.815
r94 13 22 7.93686 $w=1.7e-07 $l=2.13307e-07 $layer=LI1_cond $X=6.44 $Y=0.98
+ $X2=6.615 $Y2=1.065
r95 13 15 15.311 $w=3.48e-07 $l=4.65e-07 $layer=LI1_cond $X=6.44 $Y=0.98
+ $X2=6.44 $Y2=0.515
r96 4 51 600 $w=1.7e-07 $l=2.10357e-07 $layer=licon1_PDIFF $count=1 $X=7.28
+ $Y=1.84 $X2=7.43 $Y2=1.985
r97 4 31 300 $w=1.7e-07 $l=6.30555e-07 $layer=licon1_PDIFF $count=2 $X=7.28
+ $Y=1.84 $X2=7.43 $Y2=2.4
r98 3 36 400 $w=1.7e-07 $l=2.36643e-07 $layer=licon1_PDIFF $count=1 $X=6.305
+ $Y=1.84 $X2=6.48 $Y2=1.985
r99 3 19 400 $w=1.7e-07 $l=1.05889e-06 $layer=licon1_PDIFF $count=1 $X=6.305
+ $Y=1.84 $X2=6.48 $Y2=2.815
r100 2 27 91 $w=1.7e-07 $l=2.03286e-07 $layer=licon1_NDIFF $count=2 $X=7.24
+ $Y=0.37 $X2=7.38 $Y2=0.515
r101 1 15 91 $w=1.7e-07 $l=2.10357e-07 $layer=licon1_NDIFF $count=2 $X=6.29
+ $Y=0.37 $X2=6.44 $Y2=0.515
.ends

.subckt PM_SKY130_FD_SC_HS__DLXTN_4%VGND 1 2 3 4 5 6 21 25 29 33 37 39 41 44 45
+ 46 48 53 61 70 74 80 83 86 89 93
r112 92 93 9.3 $w=1.7e-07 $l=1.7e-07 $layer=mcon $count=1 $X=7.92 $Y=0 $X2=7.92
+ $Y2=0
r113 89 90 9.3 $w=1.7e-07 $l=1.7e-07 $layer=mcon $count=1 $X=6.96 $Y=0 $X2=6.96
+ $Y2=0
r114 86 87 9.3 $w=1.7e-07 $l=1.7e-07 $layer=mcon $count=1 $X=5.04 $Y=0 $X2=5.04
+ $Y2=0
r115 83 84 4.65 $w=1.7e-07 $l=3.4e-07 $layer=mcon $count=2 $X=3.12 $Y=0 $X2=3.12
+ $Y2=0
r116 80 81 9.3 $w=1.7e-07 $l=1.7e-07 $layer=mcon $count=1 $X=0.72 $Y=0 $X2=0.72
+ $Y2=0
r117 78 93 0.133793 $w=4.9e-07 $l=4.8e-07 $layer=MET1_cond $X=7.44 $Y=0 $X2=7.92
+ $Y2=0
r118 78 90 0.133793 $w=4.9e-07 $l=4.8e-07 $layer=MET1_cond $X=7.44 $Y=0 $X2=6.96
+ $Y2=0
r119 77 78 9.3 $w=1.7e-07 $l=1.7e-07 $layer=mcon $count=1 $X=7.44 $Y=0 $X2=7.44
+ $Y2=0
r120 75 89 8.61065 $w=1.7e-07 $l=1.65e-07 $layer=LI1_cond $X=7.115 $Y=0 $X2=6.95
+ $Y2=0
r121 75 77 21.2032 $w=1.68e-07 $l=3.25e-07 $layer=LI1_cond $X=7.115 $Y=0
+ $X2=7.44 $Y2=0
r122 74 92 4.73651 $w=1.7e-07 $l=2.22e-07 $layer=LI1_cond $X=7.715 $Y=0
+ $X2=7.937 $Y2=0
r123 74 77 17.9412 $w=1.68e-07 $l=2.75e-07 $layer=LI1_cond $X=7.715 $Y=0
+ $X2=7.44 $Y2=0
r124 73 90 0.133793 $w=4.9e-07 $l=4.8e-07 $layer=MET1_cond $X=6.48 $Y=0 $X2=6.96
+ $Y2=0
r125 72 73 4.65 $w=1.7e-07 $l=3.4e-07 $layer=mcon $count=2 $X=6.48 $Y=0 $X2=6.48
+ $Y2=0
r126 70 89 8.61065 $w=1.7e-07 $l=1.65e-07 $layer=LI1_cond $X=6.785 $Y=0 $X2=6.95
+ $Y2=0
r127 70 72 19.8984 $w=1.68e-07 $l=3.05e-07 $layer=LI1_cond $X=6.785 $Y=0
+ $X2=6.48 $Y2=0
r128 69 73 0.267585 $w=4.9e-07 $l=9.6e-07 $layer=MET1_cond $X=5.52 $Y=0 $X2=6.48
+ $Y2=0
r129 69 87 0.133793 $w=4.9e-07 $l=4.8e-07 $layer=MET1_cond $X=5.52 $Y=0 $X2=5.04
+ $Y2=0