* File: sky130_fd_sc_hs__a221o_4.pex.spice
* Created: Tue Sep  1 19:50:19 2020
* Program "Calibre xRC"
* Version "v2018.4_34.26"
* Nominal Temperature: 27C
* Circuit Temperature: 27C
* 
.subckt PM_SKY130_FD_SC_HS__A221O_4%A1 4 5 6 7 9 10 11 15 16 17 18 20 22 24 29
+ 30 35
c73 15 0 1.82203e-19 $X=1.125 $Y=0.995
c74 5 0 1.22861e-20 $X=0.71 $Y=1.48
r75 35 38 15.7375 $w=3.3e-07 $l=9e-08 $layer=POLY_cond $X=1.6 $Y=0.4 $X2=1.6
+ $Y2=0.49
r76 35 36 145.28 $w=1.7e-07 $l=1.7e-07 $layer=licon1_POLY $count=1 $X=1.6 $Y=0.4
+ $X2=1.6 $Y2=0.4
r77 29 40 4.25403 $w=1.7e-07 $l=1.55e-07 $layer=LI1_cond $X=1.68 $Y=0.41
+ $X2=1.68 $Y2=0.565
r78 29 36 2.97405 $w=3.08e-07 $l=8e-08 $layer=LI1_cond $X=1.68 $Y=0.41 $X2=1.6
+ $Y2=0.41
r79 29 30 21.0727 $w=1.68e-07 $l=3.23e-07 $layer=LI1_cond $X=1.68 $Y=0.602
+ $X2=1.68 $Y2=0.925
r80 29 40 2.4139 $w=1.68e-07 $l=3.7e-08 $layer=LI1_cond $X=1.68 $Y=0.602
+ $X2=1.68 $Y2=0.565
r81 20 22 184.767 $w=1.5e-07 $l=5.75e-07 $layer=POLY_cond $X=1.28 $Y=1.805
+ $X2=1.28 $Y2=2.38
r82 19 24 20.4101 $w=1.5e-07 $l=7.5e-08 $layer=POLY_cond $X=1.2 $Y=0.49
+ $X2=1.125 $Y2=0.49
r83 18 38 21.2229 $w=1.5e-07 $l=1.65e-07 $layer=POLY_cond $X=1.435 $Y=0.49
+ $X2=1.6 $Y2=0.49
r84 18 19 120.5 $w=1.5e-07 $l=2.35e-07 $layer=POLY_cond $X=1.435 $Y=0.49 $X2=1.2
+ $Y2=0.49
r85 17 20 36.0588 $w=1.8e-07 $l=9e-08 $layer=POLY_cond $X=1.28 $Y=1.715 $X2=1.28
+ $Y2=1.805
r86 16 25 79.4787 $w=1.5e-07 $l=1.55e-07 $layer=POLY_cond $X=1.28 $Y=1.465
+ $X2=1.125 $Y2=1.465
r87 16 17 68.0242 $w=1.8e-07 $l=1.75e-07 $layer=POLY_cond $X=1.28 $Y=1.54
+ $X2=1.28 $Y2=1.715
r88 13 25 2.83073 $w=1.5e-07 $l=7.5e-08 $layer=POLY_cond $X=1.125 $Y=1.39
+ $X2=1.125 $Y2=1.465
r89 13 15 202.543 $w=1.5e-07 $l=3.95e-07 $layer=POLY_cond $X=1.125 $Y=1.39
+ $X2=1.125 $Y2=0.995
r90 12 24 5.30422 $w=1.5e-07 $l=7.5e-08 $layer=POLY_cond $X=1.125 $Y=0.565
+ $X2=1.125 $Y2=0.49
r91 12 15 220.489 $w=1.5e-07 $l=4.3e-07 $layer=POLY_cond $X=1.125 $Y=0.565
+ $X2=1.125 $Y2=0.995
r92 10 24 20.4101 $w=1.5e-07 $l=7.5e-08 $layer=POLY_cond $X=1.05 $Y=0.49
+ $X2=1.125 $Y2=0.49
r93 10 11 143.574 $w=1.5e-07 $l=2.8e-07 $layer=POLY_cond $X=1.05 $Y=0.49
+ $X2=0.77 $Y2=0.49
r94 7 9 184.767 $w=1.5e-07 $l=5.75e-07 $layer=POLY_cond $X=0.71 $Y=1.805
+ $X2=0.71 $Y2=2.38
r95 6 7 36.0588 $w=1.8e-07 $l=9e-08 $layer=POLY_cond $X=0.71 $Y=1.715 $X2=0.71
+ $Y2=1.805
r96 5 23 37.1337 $w=1.8e-07 $l=9e-08 $layer=POLY_cond $X=0.71 $Y=1.48 $X2=0.71
+ $Y2=1.39
r97 5 6 91.3468 $w=1.8e-07 $l=2.35e-07 $layer=POLY_cond $X=0.71 $Y=1.48 $X2=0.71
+ $Y2=1.715
r98 4 23 202.543 $w=1.5e-07 $l=3.95e-07 $layer=POLY_cond $X=0.695 $Y=0.995
+ $X2=0.695 $Y2=1.39
r99 1 11 26.9307 $w=1.5e-07 $l=1.06066e-07 $layer=POLY_cond $X=0.695 $Y=0.565
+ $X2=0.77 $Y2=0.49
r100 1 4 220.489 $w=1.5e-07 $l=4.3e-07 $layer=POLY_cond $X=0.695 $Y=0.565
+ $X2=0.695 $Y2=0.995
.ends

.subckt PM_SKY130_FD_SC_HS__A221O_4%A2 2 3 5 9 11 12 14 15 17 22 24 27
c70 15 0 1.08291e-19 $X=2.89 $Y=1.33
r71 27 30 46.2115 $w=3.3e-07 $l=1.65e-07 $layer=POLY_cond $X=2.44 $Y=0.34
+ $X2=2.44 $Y2=0.505
r72 27 28 145.28 $w=1.7e-07 $l=1.7e-07 $layer=licon1_POLY $count=1 $X=2.44
+ $Y=0.34 $X2=2.44 $Y2=0.34
r73 24 28 6.90263 $w=3.8e-07 $l=2.7037e-07 $layer=LI1_cond $X=2.64 $Y=0.555
+ $X2=2.515 $Y2=0.34
r74 15 22 2.83073 $w=1.5e-07 $l=7.5e-08 $layer=POLY_cond $X=2.89 $Y=1.33
+ $X2=2.89 $Y2=1.405
r75 15 17 126.927 $w=1.5e-07 $l=3.95e-07 $layer=POLY_cond $X=2.89 $Y=1.33
+ $X2=2.89 $Y2=0.935
r76 12 14 184.767 $w=1.5e-07 $l=5.75e-07 $layer=POLY_cond $X=2.625 $Y=1.805
+ $X2=2.625 $Y2=2.38
r77 11 12 36.0588 $w=1.8e-07 $l=9e-08 $layer=POLY_cond $X=2.625 $Y=1.715
+ $X2=2.625 $Y2=1.805
r78 10 22 135.883 $w=1.5e-07 $l=2.65e-07 $layer=POLY_cond $X=2.625 $Y=1.405
+ $X2=2.89 $Y2=1.405
r79 10 20 84.6064 $w=1.5e-07 $l=1.65e-07 $layer=POLY_cond $X=2.625 $Y=1.405
+ $X2=2.46 $Y2=1.405
r80 10 11 91.3468 $w=1.8e-07 $l=2.35e-07 $layer=POLY_cond $X=2.625 $Y=1.48
+ $X2=2.625 $Y2=1.715
r81 9 30 220.489 $w=1.5e-07 $l=4.3e-07 $layer=POLY_cond $X=2.46 $Y=0.935
+ $X2=2.46 $Y2=0.505
r82 7 20 2.83073 $w=1.5e-07 $l=7.5e-08 $layer=POLY_cond $X=2.46 $Y=1.33 $X2=2.46
+ $Y2=1.405
r83 7 9 202.543 $w=1.5e-07 $l=3.95e-07 $layer=POLY_cond $X=2.46 $Y=1.33 $X2=2.46
+ $Y2=0.935
r84 3 5 184.767 $w=1.5e-07 $l=5.75e-07 $layer=POLY_cond $X=2.175 $Y=1.805
+ $X2=2.175 $Y2=2.38
r85 2 3 36.0588 $w=1.8e-07 $l=9e-08 $layer=POLY_cond $X=2.175 $Y=1.715 $X2=2.175
+ $Y2=1.805
r86 1 20 146.138 $w=1.5e-07 $l=2.85e-07 $layer=POLY_cond $X=2.175 $Y=1.405
+ $X2=2.46 $Y2=1.405
r87 1 2 91.3468 $w=1.8e-07 $l=2.35e-07 $layer=POLY_cond $X=2.175 $Y=1.48
+ $X2=2.175 $Y2=1.715
.ends

.subckt PM_SKY130_FD_SC_HS__A221O_4%A_154_135# 1 2 3 4 13 15 16 18 19 21 22 24
+ 25 27 28 30 31 33 34 36 39 42 43 44 48 52 55 58 60 64 69 70 74 75 84
c210 84 0 1.41556e-19 $X=4.585 $Y=1.557
c211 55 0 1.9796e-19 $X=6.005 $Y=1.6
c212 52 0 1.2395e-19 $X=5.775 $Y=0.745
c213 44 0 1.86464e-19 $X=3.795 $Y=1.55
c214 34 0 1.44963e-19 $X=4.67 $Y=1.35
r215 84 85 11.841 $w=3.46e-07 $l=8.5e-08 $layer=POLY_cond $X=4.585 $Y=1.557
+ $X2=4.67 $Y2=1.557
r216 81 82 14.6272 $w=3.46e-07 $l=1.05e-07 $layer=POLY_cond $X=4.135 $Y=1.557
+ $X2=4.24 $Y2=1.557
r217 80 81 45.2746 $w=3.46e-07 $l=3.25e-07 $layer=POLY_cond $X=3.81 $Y=1.557
+ $X2=4.135 $Y2=1.557
r218 77 78 42.4884 $w=3.46e-07 $l=3.05e-07 $layer=POLY_cond $X=3.38 $Y=1.557
+ $X2=3.685 $Y2=1.557
r219 76 77 20.1994 $w=3.46e-07 $l=1.45e-07 $layer=POLY_cond $X=3.235 $Y=1.557
+ $X2=3.38 $Y2=1.557
r220 68 80 6.96532 $w=3.46e-07 $l=5e-08 $layer=POLY_cond $X=3.76 $Y=1.557
+ $X2=3.81 $Y2=1.557
r221 68 78 10.448 $w=3.46e-07 $l=7.5e-08 $layer=POLY_cond $X=3.76 $Y=1.557
+ $X2=3.685 $Y2=1.557
r222 67 69 8.64761 $w=3.98e-07 $l=1.65e-07 $layer=LI1_cond $X=3.76 $Y=1.55
+ $X2=3.595 $Y2=1.55
r223 67 68 96.8533 $w=1.7e-07 $l=2.55e-07 $layer=licon1_POLY $count=1 $X=3.76
+ $Y=1.515 $X2=3.76 $Y2=1.515
r224 62 64 29.3349 $w=3.28e-07 $l=8.4e-07 $layer=LI1_cond $X=8.28 $Y=1.6
+ $X2=8.28 $Y2=0.76
r225 61 75 2.76166 $w=1.7e-07 $l=1.65e-07 $layer=LI1_cond $X=6.25 $Y=1.685
+ $X2=6.085 $Y2=1.685
r226 60 62 7.76618 $w=1.7e-07 $l=2.03101e-07 $layer=LI1_cond $X=8.115 $Y=1.685
+ $X2=8.28 $Y2=1.6
r227 60 61 121.674 $w=1.68e-07 $l=1.865e-06 $layer=LI1_cond $X=8.115 $Y=1.685
+ $X2=6.25 $Y2=1.685
r228 56 75 3.70735 $w=2.5e-07 $l=8.5e-08 $layer=LI1_cond $X=6.085 $Y=1.77
+ $X2=6.085 $Y2=1.685
r229 56 58 11.699 $w=3.28e-07 $l=3.35e-07 $layer=LI1_cond $X=6.085 $Y=1.77
+ $X2=6.085 $Y2=2.105
r230 55 75 3.70735 $w=2.5e-07 $l=1.18427e-07 $layer=LI1_cond $X=6.005 $Y=1.6
+ $X2=6.085 $Y2=1.685
r231 54 74 3.70735 $w=2.5e-07 $l=1.92873e-07 $layer=LI1_cond $X=6.005 $Y=1.3
+ $X2=5.85 $Y2=1.215
r232 54 55 19.5722 $w=1.68e-07 $l=3e-07 $layer=LI1_cond $X=6.005 $Y=1.3
+ $X2=6.005 $Y2=1.6
r233 50 74 3.70735 $w=2.5e-07 $l=1.16619e-07 $layer=LI1_cond $X=5.775 $Y=1.13
+ $X2=5.85 $Y2=1.215
r234 50 52 13.4452 $w=3.28e-07 $l=3.85e-07 $layer=LI1_cond $X=5.775 $Y=1.13
+ $X2=5.775 $Y2=0.745
r235 49 70 0.716491 $w=1.7e-07 $l=8.5e-08 $layer=LI1_cond $X=4.88 $Y=1.215
+ $X2=4.795 $Y2=1.215
r236 48 74 2.76166 $w=1.7e-07 $l=2.4e-07 $layer=LI1_cond $X=5.61 $Y=1.215
+ $X2=5.85 $Y2=1.215
r237 48 49 47.6257 $w=1.68e-07 $l=7.3e-07 $layer=LI1_cond $X=5.61 $Y=1.215
+ $X2=4.88 $Y2=1.215
r238 47 84 20.1994 $w=3.46e-07 $l=1.45e-07 $layer=POLY_cond $X=4.44 $Y=1.557
+ $X2=4.585 $Y2=1.557
r239 47 82 27.8613 $w=3.46e-07 $l=2e-07 $layer=POLY_cond $X=4.44 $Y=1.557
+ $X2=4.24 $Y2=1.557
r240 46 47 96.8533 $w=1.7e-07 $l=2.55e-07 $layer=licon1_POLY $count=1 $X=4.44
+ $Y=1.515 $X2=4.44 $Y2=1.515
r241 44 67 1.00839 $w=3.98e-07 $l=3.5e-08 $layer=LI1_cond $X=3.795 $Y=1.55
+ $X2=3.76 $Y2=1.55
r242 44 46 18.5831 $w=3.98e-07 $l=6.45e-07 $layer=LI1_cond $X=3.795 $Y=1.55
+ $X2=4.44 $Y2=1.55
r243 43 70 21.8556 $w=1.68e-07 $l=3.35e-07 $layer=LI1_cond $X=4.795 $Y=1.55
+ $X2=4.795 $Y2=1.215
r244 43 46 7.77899 $w=3.98e-07 $l=2.7e-07 $layer=LI1_cond $X=4.71 $Y=1.55
+ $X2=4.44 $Y2=1.55
r245 42 69 164.406 $w=1.68e-07 $l=2.52e-06 $layer=LI1_cond $X=1.075 $Y=1.665
+ $X2=3.595 $Y2=1.665
r246 37 42 7.76618 $w=1.7e-07 $l=2.03101e-07 $layer=LI1_cond $X=0.91 $Y=1.58
+ $X2=1.075 $Y2=1.665
r247 37 39 14.4928 $w=3.28e-07 $l=4.15e-07 $layer=LI1_cond $X=0.91 $Y=1.58
+ $X2=0.91 $Y2=1.165
r248 34 85 22.3532 $w=1.5e-07 $l=2.07e-07 $layer=POLY_cond $X=4.67 $Y=1.35
+ $X2=4.67 $Y2=1.557
r249 34 36 154.24 $w=1.5e-07 $l=4.8e-07 $layer=POLY_cond $X=4.67 $Y=1.35
+ $X2=4.67 $Y2=0.87
r250 31 84 22.3532 $w=1.5e-07 $l=2.08e-07 $layer=POLY_cond $X=4.585 $Y=1.765
+ $X2=4.585 $Y2=1.557
r251 31 33 204.047 $w=1.5e-07 $l=6.35e-07 $layer=POLY_cond $X=4.585 $Y=1.765
+ $X2=4.585 $Y2=2.4
r252 28 82 22.3532 $w=1.5e-07 $l=2.07e-07 $layer=POLY_cond $X=4.24 $Y=1.35
+ $X2=4.24 $Y2=1.557
r253 28 30 154.24 $w=1.5e-07 $l=4.8e-07 $layer=POLY_cond $X=4.24 $Y=1.35
+ $X2=4.24 $Y2=0.87
r254 25 81 22.3532 $w=1.5e-07 $l=2.08e-07 $layer=POLY_cond $X=4.135 $Y=1.765
+ $X2=4.135 $Y2=1.557
r255 25 27 204.047 $w=1.5e-07 $l=6.35e-07 $layer=POLY_cond $X=4.135 $Y=1.765
+ $X2=4.135 $Y2=2.4
r256 22 80 22.3532 $w=1.5e-07 $l=2.07e-07 $layer=POLY_cond $X=3.81 $Y=1.35
+ $X2=3.81 $Y2=1.557
r257 22 24 154.24 $w=1.5e-07 $l=4.8e-07 $layer=POLY_cond $X=3.81 $Y=1.35
+ $X2=3.81 $Y2=0.87
r258 19 78 22.3532 $w=1.5e-07 $l=2.08e-07 $layer=POLY_cond $X=3.685 $Y=1.765
+ $X2=3.685 $Y2=1.557
r259 19 21 204.047 $w=1.5e-07 $l=6.35e-07 $layer=POLY_cond $X=3.685 $Y=1.765
+ $X2=3.685 $Y2=2.4
r260 16 77 22.3532 $w=1.5e-07 $l=2.07e-07 $layer=POLY_cond $X=3.38 $Y=1.35
+ $X2=3.38 $Y2=1.557
r261 16 18 154.24 $w=1.5e-07 $l=4.8e-07 $layer=POLY_cond $X=3.38 $Y=1.35
+ $X2=3.38 $Y2=0.87
r262 13 76 22.3532 $w=1.5e-07 $l=2.08e-07 $layer=POLY_cond $X=3.235 $Y=1.765
+ $X2=3.235 $Y2=1.557
r263 13 15 204.047 $w=1.5e-07 $l=6.35e-07 $layer=POLY_cond $X=3.235 $Y=1.765
+ $X2=3.235 $Y2=2.4
r264 4 58 600 $w=1.7e-07 $l=2.10357e-07 $layer=licon1_PDIFF $count=1 $X=5.935
+ $Y=1.96 $X2=6.085 $Y2=2.105
r265 3 64 182 $w=1.7e-07 $l=4.44522e-07 $layer=licon1_NDIFF $count=1 $X=8.14
+ $Y=0.38 $X2=8.28 $Y2=0.76
r266 2 52 91 $w=1.7e-07 $l=2.03286e-07 $layer=licon1_NDIFF $count=2 $X=5.635
+ $Y=0.6 $X2=5.775 $Y2=0.745
r267 1 39 182 $w=1.7e-07 $l=5.55608e-07 $layer=licon1_NDIFF $count=1 $X=0.77
+ $Y=0.675 $X2=0.91 $Y2=1.165
.ends

.subckt PM_SKY130_FD_SC_HS__A221O_4%C1 3 5 7 10 12 13 14 16 18 19
c65 18 0 2.81466e-20 $X=5.52 $Y=1.665
c66 14 0 1.9796e-19 $X=6.31 $Y=1.885
c67 10 0 5.30963e-20 $X=5.99 $Y=0.92
r68 24 26 40.3988 $w=3.46e-07 $l=2.9e-07 $layer=POLY_cond $X=5.57 $Y=1.662
+ $X2=5.86 $Y2=1.662
r69 22 24 1.39306 $w=3.46e-07 $l=1e-08 $layer=POLY_cond $X=5.56 $Y=1.662
+ $X2=5.57 $Y2=1.662
r70 18 19 13.969 $w=3.28e-07 $l=4e-07 $layer=LI1_cond $X=5.57 $Y=1.635 $X2=5.57
+ $Y2=2.035
r71 18 24 145.28 $w=1.7e-07 $l=1.7e-07 $layer=licon1_POLY $count=1 $X=5.57
+ $Y=1.635 $X2=5.57 $Y2=1.635
r72 14 17 107.397 $w=1.67e-07 $l=3.7e-07 $layer=POLY_cond $X=6.31 $Y=1.885
+ $X2=6.31 $Y2=1.515
r73 14 16 184.767 $w=1.5e-07 $l=5.75e-07 $layer=POLY_cond $X=6.31 $Y=1.885
+ $X2=6.31 $Y2=2.46
r74 12 17 5.38489 $w=1.5e-07 $l=9e-08 $layer=POLY_cond $X=6.22 $Y=1.515 $X2=6.31
+ $Y2=1.515
r75 12 13 79.4787 $w=1.5e-07 $l=1.55e-07 $layer=POLY_cond $X=6.22 $Y=1.515
+ $X2=6.065 $Y2=1.515
r76 8 13 26.2018 $w=3.46e-07 $l=1.06066e-07 $layer=POLY_cond $X=5.99 $Y=1.44
+ $X2=6.065 $Y2=1.515
r77 8 26 18.1098 $w=3.46e-07 $l=2.79542e-07 $layer=POLY_cond $X=5.99 $Y=1.44
+ $X2=5.86 $Y2=1.662
r78 8 10 266.638 $w=1.5e-07 $l=5.2e-07 $layer=POLY_cond $X=5.99 $Y=1.44 $X2=5.99
+ $Y2=0.92
r79 5 26 22.3532 $w=1.5e-07 $l=2.23e-07 $layer=POLY_cond $X=5.86 $Y=1.885
+ $X2=5.86 $Y2=1.662
r80 5 7 184.767 $w=1.5e-07 $l=5.75e-07 $layer=POLY_cond $X=5.86 $Y=1.885
+ $X2=5.86 $Y2=2.46
r81 1 22 22.3532 $w=1.5e-07 $l=2.22e-07 $layer=POLY_cond $X=5.56 $Y=1.44
+ $X2=5.56 $Y2=1.662
r82 1 3 266.638 $w=1.5e-07 $l=5.2e-07 $layer=POLY_cond $X=5.56 $Y=1.44 $X2=5.56
+ $Y2=0.92
.ends

.subckt PM_SKY130_FD_SC_HS__A221O_4%B2 3 4 6 7 9 13 15 17 19 21 22 25 29 31 36
+ 38 41
c96 41 0 1.2395e-19 $X=6.635 $Y=0.505
r97 34 41 46.2115 $w=3.3e-07 $l=1.65e-07 $layer=POLY_cond $X=6.635 $Y=0.34
+ $X2=6.635 $Y2=0.505
r98 34 38 24.4806 $w=3.3e-07 $l=1.4e-07 $layer=POLY_cond $X=6.635 $Y=0.34
+ $X2=6.635 $Y2=0.2
r99 33 34 145.28 $w=1.7e-07 $l=1.7e-07 $layer=licon1_POLY $count=1 $X=6.635
+ $Y=0.34 $X2=6.635 $Y2=0.34
r100 31 36 9.70455 $w=1.98e-07 $l=1.75e-07 $layer=LI1_cond $X=6.945 $Y=0.38
+ $X2=6.945 $Y2=0.555
r101 31 33 9.68052 $w=2.48e-07 $l=2.1e-07 $layer=LI1_cond $X=6.845 $Y=0.38
+ $X2=6.635 $Y2=0.38
r102 27 29 51.2766 $w=1.5e-07 $l=1e-07 $layer=POLY_cond $X=7.475 $Y=1.405
+ $X2=7.575 $Y2=1.405
r103 25 26 68.672 $w=1.86e-07 $l=2.65e-07 $layer=POLY_cond $X=7.21 $Y=1.755
+ $X2=7.475 $Y2=1.755
r104 24 25 32.3925 $w=1.86e-07 $l=1.25e-07 $layer=POLY_cond $X=7.085 $Y=1.755
+ $X2=7.21 $Y2=1.755
r105 21 29 2.83073 $w=1.5e-07 $l=7.5e-08 $layer=POLY_cond $X=7.575 $Y=1.33
+ $X2=7.575 $Y2=1.405
r106 20 21 540.968 $w=1.5e-07 $l=1.055e-06 $layer=POLY_cond $X=7.575 $Y=0.275
+ $X2=7.575 $Y2=1.33
r107 19 26 7.89931 $w=1.5e-07 $l=1.3e-07 $layer=POLY_cond $X=7.475 $Y=1.625
+ $X2=7.475 $Y2=1.755
r108 18 27 2.83073 $w=1.5e-07 $l=7.5e-08 $layer=POLY_cond $X=7.475 $Y=1.48
+ $X2=7.475 $Y2=1.405
r109 18 19 74.3511 $w=1.5e-07 $l=1.45e-07 $layer=POLY_cond $X=7.475 $Y=1.48
+ $X2=7.475 $Y2=1.625
r110 15 25 7.89931 $w=1.5e-07 $l=1.3e-07 $layer=POLY_cond $X=7.21 $Y=1.885
+ $X2=7.21 $Y2=1.755
r111 15 17 184.767 $w=1.5e-07 $l=5.75e-07 $layer=POLY_cond $X=7.21 $Y=1.885
+ $X2=7.21 $Y2=2.46
r112 11 24 7.89931 $w=1.5e-07 $l=1.3e-07 $layer=POLY_cond $X=7.085 $Y=1.625
+ $X2=7.085 $Y2=1.755
r113 11 13 353.809 $w=1.5e-07 $l=6.9e-07 $layer=POLY_cond $X=7.085 $Y=1.625
+ $X2=7.085 $Y2=0.935
r114 10 22 7.1379 $w=1.5e-07 $l=9e-08 $layer=POLY_cond $X=6.85 $Y=1.7 $X2=6.76
+ $Y2=1.7
r115 9 24 21.3816 $w=1.86e-07 $l=9.87421e-08 $layer=POLY_cond $X=7.01 $Y=1.7
+ $X2=7.085 $Y2=1.755
r116 9 10 82.0426 $w=1.5e-07 $l=1.6e-07 $layer=POLY_cond $X=7.01 $Y=1.7 $X2=6.85
+ $Y2=1.7
r117 8 38 21.2229 $w=1.5e-07 $l=1.65e-07 $layer=POLY_cond $X=6.8 $Y=0.2
+ $X2=6.635 $Y2=0.2
r118 7 20 26.9307 $w=1.5e-07 $l=1.06066e-07 $layer=POLY_cond $X=7.5 $Y=0.2
+ $X2=7.575 $Y2=0.275
r119 7 8 358.936 $w=1.5e-07 $l=7e-07 $layer=POLY_cond $X=7.5 $Y=0.2 $X2=6.8
+ $Y2=0.2
r120 4 22 74.0611 $w=1.8e-07 $l=1.85e-07 $layer=POLY_cond $X=6.76 $Y=1.885
+ $X2=6.76 $Y2=1.7
r121 4 6 184.767 $w=1.5e-07 $l=5.75e-07 $layer=POLY_cond $X=6.76 $Y=1.885
+ $X2=6.76 $Y2=2.46
r122 3 41 138.173 $w=1.5e-07 $l=4.3e-07 $layer=POLY_cond $X=6.655 $Y=0.935
+ $X2=6.655 $Y2=0.505
.ends

.subckt PM_SKY130_FD_SC_HS__A221O_4%B1 1 3 6 8 10 13 15 20 21 25 33
c50 6 0 3.65222e-20 $X=8.065 $Y=0.7
r51 26 33 0.810495 $w=5.38e-07 $l=2e-08 $layer=LI1_cond $X=9.115 $Y=1.48
+ $X2=9.095 $Y2=1.48
r52 25 26 72.64 $w=1.7e-07 $l=3.4e-07 $layer=licon1_POLY $count=2 $X=9.115
+ $Y=1.465 $X2=9.115 $Y2=1.465
r53 21 26 5.42665 $w=5.38e-07 $l=2.45e-07 $layer=LI1_cond $X=9.36 $Y=1.48
+ $X2=9.115 $Y2=1.48
r54 20 33 5.7146 $w=4.48e-07 $l=2.15e-07 $layer=LI1_cond $X=8.88 $Y=1.525
+ $X2=9.095 $Y2=1.525
r55 18 19 6.54568 $w=4.05e-07 $l=5.5e-08 $layer=POLY_cond $X=8.44 $Y=1.592
+ $X2=8.495 $Y2=1.592
r56 17 18 44.6296 $w=4.05e-07 $l=3.75e-07 $layer=POLY_cond $X=8.065 $Y=1.592
+ $X2=8.44 $Y2=1.592
r57 16 17 13.6864 $w=4.05e-07 $l=1.15e-07 $layer=POLY_cond $X=7.95 $Y=1.592
+ $X2=8.065 $Y2=1.592
r58 15 25 72.1676 $w=4.2e-07 $l=5.45e-07 $layer=POLY_cond $X=8.57 $Y=1.51
+ $X2=9.115 $Y2=1.51
r59 15 19 8.60714 $w=4.2e-07 $l=1.13464e-07 $layer=POLY_cond $X=8.57 $Y=1.51
+ $X2=8.495 $Y2=1.592
r60 11 19 26.1659 $w=1.5e-07 $l=2.92e-07 $layer=POLY_cond $X=8.495 $Y=1.3
+ $X2=8.495 $Y2=1.592
r61 11 13 307.66 $w=1.5e-07 $l=6e-07 $layer=POLY_cond $X=8.495 $Y=1.3 $X2=8.495
+ $Y2=0.7
r62 8 18 26.1659 $w=1.5e-07 $l=2.93e-07 $layer=POLY_cond $X=8.44 $Y=1.885
+ $X2=8.44 $Y2=1.592
r63 8 10 184.767 $w=1.5e-07 $l=5.75e-07 $layer=POLY_cond $X=8.44 $Y=1.885
+ $X2=8.44 $Y2=2.46
r64 4 17 26.1659 $w=1.5e-07 $l=2.12e-07 $layer=POLY_cond $X=8.065 $Y=1.38
+ $X2=8.065 $Y2=1.592
r65 4 6 348.681 $w=1.5e-07 $l=6.8e-07 $layer=POLY_cond $X=8.065 $Y=1.38
+ $X2=8.065 $Y2=0.7
r66 1 16 26.1659 $w=1.5e-07 $l=2.93e-07 $layer=POLY_cond $X=7.95 $Y=1.885
+ $X2=7.95 $Y2=1.592
r67 1 3 184.767 $w=1.5e-07 $l=5.75e-07 $layer=POLY_cond $X=7.95 $Y=1.885
+ $X2=7.95 $Y2=2.46
.ends

.subckt PM_SKY130_FD_SC_HS__A221O_4%VPWR 1 2 3 4 5 18 22 26 30 33 34 36 37 39 40
+ 42 43 44 50 68 69 72
r89 75 76 9.3 $w=1.7e-07 $l=1.7e-07 $layer=mcon $count=1 $X=1.68 $Y=3.33
+ $X2=1.68 $Y2=3.33
r90 72 75 11.0682 $w=6.68e-07 $l=6.2e-07 $layer=LI1_cond $X=1.73 $Y=2.71
+ $X2=1.73 $Y2=3.33
r91 68 69 1.86 $w=1.7e-07 $l=8.5e-07 $layer=mcon $count=5 $X=9.36 $Y=3.33
+ $X2=9.36 $Y2=3.33
r92 66 69 1.20413 $w=4.9e-07 $l=4.32e-06 $layer=MET1_cond $X=5.04 $Y=3.33
+ $X2=9.36 $Y2=3.33
r93 65 68 281.84 $w=1.68e-07 $l=4.32e-06 $layer=LI1_cond $X=5.04 $Y=3.33
+ $X2=9.36 $Y2=3.33
r94 65 66 1.86 $w=1.7e-07 $l=8.5e-07 $layer=mcon $count=5 $X=5.04 $Y=3.33
+ $X2=5.04 $Y2=3.33
r95 62 63 4.65 $w=1.7e-07 $l=3.4e-07 $layer=mcon $count=2 $X=4.56 $Y=3.33
+ $X2=4.56 $Y2=3.33
r96 60 63 0.267585 $w=4.9e-07 $l=9.6e-07 $layer=MET1_cond $X=3.6 $Y=3.33
+ $X2=4.56 $Y2=3.33
r97 59 60 4.65 $w=1.7e-07 $l=3.4e-07 $layer=mcon $count=2 $X=3.6 $Y=3.33 $X2=3.6
+ $Y2=3.33
r98 57 60 0.267585 $w=4.9e-07 $l=9.6e-07 $layer=MET1_cond $X=2.64 $Y=3.33
+ $X2=3.6 $Y2=3.33
r99 57 76 0.267585 $w=4.9e-07 $l=9.6e-07 $layer=MET1_cond $X=2.64 $Y=3.33
+ $X2=1.68 $Y2=3.33
r100 56 57 4.65 $w=1.7e-07 $l=3.4e-07 $layer=mcon $count=2 $X=2.64 $Y=3.33
+ $X2=2.64 $Y2=3.33
r101 54 75 9.03384 $w=1.7e-07 $l=3.35e-07 $layer=LI1_cond $X=2.065 $Y=3.33
+ $X2=1.73 $Y2=3.33
r102 54 56 37.5134 $w=1.68e-07 $l=5.75e-07 $layer=LI1_cond $X=2.065 $Y=3.33
+ $X2=2.64 $Y2=3.33
r103 53 76 0.133793 $w=4.9e-07 $l=4.8e-07 $layer=MET1_cond $X=1.2 $Y=3.33
+ $X2=1.68 $Y2=3.33
r104 52 53 4.65 $w=1.7e-07 $l=3.4e-07 $layer=mcon $count=2 $X=1.2 $Y=3.33
+ $X2=1.2 $Y2=3.33
r105 50 75 9.03384 $w=1.7e-07 $l=3.35e-07 $layer=LI1_cond $X=1.395 $Y=3.33
+ $X2=1.73 $Y2=3.33
r106 50 52 12.7219 $w=1.68e-07 $l=1.95e-07 $layer=LI1_cond $X=1.395 $Y=3.33
+ $X2=1.2 $Y2=3.33
r107 48 53 0.267585 $w=4.9e-07 $l=9.6e-07 $layer=MET1_cond $X=0.24 $Y=3.33
+ $X2=1.2 $Y2=3.33
r108 47 48 9.3 $w=1.7e-07 $l=1.7e-07 $layer=mcon $count=1 $X=0.24 $Y=3.33
+ $X2=0.24 $Y2=3.33
r109 44 66 0.0668963 $w=4.9e-07 $l=2.4e-07 $layer=MET1_cond $X=4.8 $Y=3.33
+ $X2=5.04 $Y2=3.33
r110 44 63 0.0668963 $w=4.9e-07 $l=2.4e-07 $layer=MET1_cond $X=4.8 $Y=3.33
+ $X2=4.56 $Y2=3.33
r111 42 62 5.54545 $w=1.68e-07 $l=8.5e-08 $layer=LI1_cond $X=4.645 $Y=3.33
+ $X2=4.56 $Y2=3.33
r112 42 43 8.61065 $w=1.7e-07 $l=1.65e-07 $layer=LI1_cond $X=4.645 $Y=3.33
+ $X2=4.81 $Y2=3.33
r113 41 65 4.24064 $w=1.68e-07 $l=6.5e-08 $layer=LI1_cond $X=4.975 $Y=3.33
+ $X2=5.04 $Y2=3.33
r114 41 43 8.61065 $w=1.7e-07 $l=1.65e-07 $layer=LI1_cond $X=4.975 $Y=3.33
+ $X2=4.81 $Y2=3.33
r115 39 59 9.45989 $w=1.68e-07 $l=1.45e-07 $layer=LI1_cond $X=3.745 $Y=3.33
+ $X2=3.6 $Y2=3.33
r116 39 40 8.61065 $w=1.7e-07 $l=1.65e-07 $layer=LI1_cond $X=3.745 $Y=3.33
+ $X2=3.91 $Y2=3.33
r117 38 62 31.6417 $w=1.68e-07 $l=4.85e-07 $layer=LI1_cond $X=4.075 $Y=3.33
+ $X2=4.56 $Y2=3.33
r118 38 40 8.61065 $w=1.7e-07 $l=1.65e-07 $layer=LI1_cond $X=4.075 $Y=3.33
+ $X2=3.91 $Y2=3.33
r119 36 56 13.3743 $w=1.68e-07 $l=2.05e-07 $layer=LI1_cond $X=2.845 $Y=3.33
+ $X2=2.64 $Y2=3.33
r120 36 37 8.61065 $w=1.7e-07 $l=1.65e-07 $layer=LI1_cond $X=2.845 $Y=3.33
+ $X2=3.01 $Y2=3.33
r121 35 59 27.7273 $w=1.68e-07 $l=4.25e-07 $layer=LI1_cond $X=3.175 $Y=3.33
+ $X2=3.6 $Y2=3.33
r122 35 37 8.61065 $w=1.7e-07 $l=1.65e-07 $layer=LI1_cond $X=3.175 $Y=3.33
+ $X2=3.01 $Y2=3.33
r123 33 47 5.21925 $w=1.68e-07 $l=8e-08 $layer=LI1_cond $X=0.32 $Y=3.33 $X2=0.24
+ $Y2=3.33
r124 33 34 8.61065 $w=1.7e-07 $l=1.65e-07 $layer=LI1_cond $X=0.32 $Y=3.33
+ $X2=0.485 $Y2=3.33
r125 32 52 35.8824 $w=1.68e-07 $l=5.5e-07 $layer=LI1_cond $X=0.65 $Y=3.33
+ $X2=1.2 $Y2=3.33
r126 32 34 8.61065 $w=1.7e-07 $l=1.65e-07 $layer=LI1_cond $X=0.65 $Y=3.33
+ $X2=0.485 $Y2=3.33
r127 28 43 0.89609 $w=3.3e-07 $l=8.5e-08 $layer=LI1_cond $X=4.81 $Y=3.245
+ $X2=4.81 $Y2=3.33
r128 28 30 15.5405 $w=3.28e-07 $l=4.45e-07 $layer=LI1_cond $X=4.81 $Y=3.245
+ $X2=4.81 $Y2=2.8
r129 24 40 0.89609 $w=3.3e-07 $l=8.5e-08 $layer=LI1_cond $X=3.91 $Y=3.245
+ $X2=3.91 $Y2=3.33
r130 24 26 15.5405 $w=3.28e-07 $l=4.45e-07 $layer=LI1_cond $X=3.91 $Y=3.245
+ $X2=3.91 $Y2=2.8
r131 20 37 0.89609 $w=3.3e-07 $l=8.5e-08 $layer=LI1_cond $X=3.01 $Y=3.245
+ $X2=3.01 $Y2=3.33
r132 20 22 15.5405 $w=3.28e-07 $l=4.45e-07 $layer=LI1_cond $X=3.01 $Y=3.245
+ $X2=3.01 $Y2=2.8
r133 16 34 0.89609 $w=3.3e-07 $l=8.5e-08 $layer=LI1_cond $X=0.485 $Y=3.245
+ $X2=0.485 $Y2=3.33
r134 16 18 31.4303 $w=3.28e-07 $l=9e-07 $layer=LI1_cond $X=0.485 $Y=3.245
+ $X2=0.485 $Y2=2.345
r135 5 30 600 $w=1.7e-07 $l=1.03228e-06 $layer=licon1_PDIFF $count=1 $X=4.66
+ $Y=1.84 $X2=4.81 $Y2=2.8
r136 4 26 600 $w=1.7e-07 $l=1.03228e-06 $layer=licon1_PDIFF $count=1 $X=3.76
+ $Y=1.84 $X2=3.91 $Y2=2.8
r137 3 22 600 $w=1.7e-07 $l=1.06377e-06 $layer=licon1_PDIFF $count=1 $X=2.7
+ $Y=1.88 $X2=3.01 $Y2=2.8
r138 2 72 300 $w=1.7e-07 $l=1.06829e-06 $layer=licon1_PDIFF $count=2 $X=1.355
+ $Y=1.88 $X2=1.9 $Y2=2.71
r139 1 18 300 $w=1.7e-07 $l=5.23784e-07 $layer=licon1_PDIFF $count=2 $X=0.36
+ $Y=1.88 $X2=0.485 $Y2=2.345
.ends

.subckt PM_SKY130_FD_SC_HS__A221O_4%A_157_376# 1 2 3 4 15 19 21 22 23 28 30 33
+ 37
r91 33 35 5.04967 $w=3.02e-07 $l=1.25e-07 $layer=LI1_cond $X=6.985 $Y=2.445
+ $X2=6.985 $Y2=2.57
r92 24 32 5.12568 $w=1.7e-07 $l=1.65e-07 $layer=LI1_cond $X=7.15 $Y=2.025
+ $X2=6.985 $Y2=2.025
r93 23 37 5.55669 $w=1.7e-07 $l=1.85e-07 $layer=LI1_cond $X=8.01 $Y=2.025
+ $X2=8.195 $Y2=2.025
r94 23 24 56.107 $w=1.68e-07 $l=8.6e-07 $layer=LI1_cond $X=8.01 $Y=2.025
+ $X2=7.15 $Y2=2.025
r95 22 33 3.2529 $w=3.3e-07 $l=8.5e-08 $layer=LI1_cond $X=6.985 $Y=2.36
+ $X2=6.985 $Y2=2.445
r96 21 32 2.6405 $w=3.3e-07 $l=8.5e-08 $layer=LI1_cond $X=6.985 $Y=2.11
+ $X2=6.985 $Y2=2.025
r97 21 22 8.73063 $w=3.28e-07 $l=2.5e-07 $layer=LI1_cond $X=6.985 $Y=2.11
+ $X2=6.985 $Y2=2.36
r98 20 30 8.61065 $w=1.7e-07 $l=1.88348e-07 $layer=LI1_cond $X=2.565 $Y=2.445
+ $X2=2.4 $Y2=2.395
r99 19 33 4.10007 $w=1.7e-07 $l=1.65e-07 $layer=LI1_cond $X=6.82 $Y=2.445
+ $X2=6.985 $Y2=2.445
r100 19 20 277.599 $w=1.68e-07 $l=4.255e-06 $layer=LI1_cond $X=6.82 $Y=2.445
+ $X2=2.565 $Y2=2.445
r101 16 28 5.12568 $w=1.7e-07 $l=1.65e-07 $layer=LI1_cond $X=1.22 $Y=2.345
+ $X2=1.055 $Y2=2.345
r102 15 30 8.61065 $w=1.7e-07 $l=1.88348e-07 $layer=LI1_cond $X=2.235 $Y=2.345
+ $X2=2.4 $Y2=2.395
r103 15 16 66.2193 $w=1.68e-07 $l=1.015e-06 $layer=LI1_cond $X=2.235 $Y=2.345
+ $X2=1.22 $Y2=2.345
r104 4 37 300 $w=1.7e-07 $l=2.31409e-07 $layer=licon1_PDIFF $count=2 $X=8.025
+ $Y=1.96 $X2=8.195 $Y2=2.105
r105 3 35 600 $w=1.7e-07 $l=6.80882e-07 $layer=licon1_PDIFF $count=1 $X=6.835
+ $Y=1.96 $X2=6.985 $Y2=2.57
r106 3 32 600 $w=1.7e-07 $l=2.10357e-07 $layer=licon1_PDIFF $count=1 $X=6.835
+ $Y=1.96 $X2=6.985 $Y2=2.105
r107 2 30 300 $w=1.7e-07 $l=5.34766e-07 $layer=licon1_PDIFF $count=2 $X=2.25
+ $Y=1.88 $X2=2.4 $Y2=2.345
r108 1 28 300 $w=1.7e-07 $l=5.84615e-07 $layer=licon1_PDIFF $count=2 $X=0.785
+ $Y=1.88 $X2=1.055 $Y2=2.345
.ends

.subckt PM_SKY130_FD_SC_HS__A221O_4%X 1 2 3 4 14 15 19 21 25 27 31 34 35 36 37
+ 40 42 46
c121 34 0 2.4855e-20 $X=2.85 $Y=2.055
c122 31 0 1.44963e-19 $X=4.455 $Y=0.645
r123 46 49 10.0212 $w=2.28e-07 $l=2e-07 $layer=LI1_cond $X=3.12 $Y=1.095
+ $X2=3.12 $Y2=1.295
r124 42 49 9.3 $w=1.7e-07 $l=1.7e-07 $layer=mcon $count=1 $X=3.12 $Y=1.295
+ $X2=3.12 $Y2=1.295
r125 39 40 9.3 $w=1.7e-07 $l=1.7e-07 $layer=mcon $count=1 $X=0.24 $Y=1.295
+ $X2=0.24 $Y2=1.295
r126 37 39 0.115467 $w=2.3e-07 $l=1.45e-07 $layer=MET1_cond $X=0.385 $Y=1.295
+ $X2=0.24 $Y2=1.295
r127 36 42 0.115467 $w=2.3e-07 $l=1.45e-07 $layer=MET1_cond $X=2.975 $Y=1.295
+ $X2=3.12 $Y2=1.295
r128 36 37 3.20544 $w=1.4e-07 $l=2.59e-06 $layer=MET1_cond $X=2.975 $Y=1.295
+ $X2=0.385 $Y2=1.295
r129 33 40 31.3164 $w=2.28e-07 $l=6.25e-07 $layer=LI1_cond $X=0.24 $Y=1.92
+ $X2=0.24 $Y2=1.295
r130 29 31 16.8257 $w=2.48e-07 $l=3.65e-07 $layer=LI1_cond $X=4.415 $Y=1.01
+ $X2=4.415 $Y2=0.645
r131 28 35 8.61065 $w=1.7e-07 $l=1.65e-07 $layer=LI1_cond $X=3.76 $Y=1.095
+ $X2=3.595 $Y2=1.095
r132 27 29 7.14316 $w=1.7e-07 $l=1.62019e-07 $layer=LI1_cond $X=4.29 $Y=1.095
+ $X2=4.415 $Y2=1.01
r133 27 28 34.5775 $w=1.68e-07 $l=5.3e-07 $layer=LI1_cond $X=4.29 $Y=1.095
+ $X2=3.76 $Y2=1.095
r134 23 35 0.89609 $w=3.3e-07 $l=8.5e-08 $layer=LI1_cond $X=3.595 $Y=1.01
+ $X2=3.595 $Y2=1.095
r135 23 25 12.7467 $w=3.28e-07 $l=3.65e-07 $layer=LI1_cond $X=3.595 $Y=1.01
+ $X2=3.595 $Y2=0.645
r136 22 46 2.50919 $w=1.7e-07 $l=1.15e-07 $layer=LI1_cond $X=3.235 $Y=1.095
+ $X2=3.12 $Y2=1.095
r137 21 35 8.61065 $w=1.7e-07 $l=1.65e-07 $layer=LI1_cond $X=3.43 $Y=1.095
+ $X2=3.595 $Y2=1.095
r138 21 22 12.7219 $w=1.68e-07 $l=1.95e-07 $layer=LI1_cond $X=3.43 $Y=1.095
+ $X2=3.235 $Y2=1.095
r139 17 19 38.4148 $w=2.68e-07 $l=9e-07 $layer=LI1_cond $X=3.46 $Y=2.055
+ $X2=4.36 $Y2=2.055
r140 15 34 13.0976 $w=2.68e-07 $l=2.7e-07 $layer=LI1_cond $X=3.12 $Y=2.055
+ $X2=2.85 $Y2=2.055
r141 15 17 14.5122 $w=2.68e-07 $l=3.4e-07 $layer=LI1_cond $X=3.12 $Y=2.055
+ $X2=3.46 $Y2=2.055
r142 14 33 7.01789 $w=1.7e-07 $l=1.51658e-07 $layer=LI1_cond $X=0.355 $Y=2.005
+ $X2=0.24 $Y2=1.92
r143 14 34 162.775 $w=1.68e-07 $l=2.495e-06 $layer=LI1_cond $X=0.355 $Y=2.005
+ $X2=2.85 $Y2=2.005
r144 4 19 600 $w=1.7e-07 $l=2.74955e-07 $layer=licon1_PDIFF $count=1 $X=4.21
+ $Y=1.84 $X2=4.36 $Y2=2.05
r145 3 17 600 $w=1.7e-07 $l=2.74955e-07 $layer=licon1_PDIFF $count=1 $X=3.31
+ $Y=1.84 $X2=3.46 $Y2=2.05
r146 2 31 91 $w=1.7e-07 $l=2.03286e-07 $layer=licon1_NDIFF $count=2 $X=4.315
+ $Y=0.5 $X2=4.455 $Y2=0.645
r147 1 25 91 $w=1.7e-07 $l=2.03286e-07 $layer=licon1_NDIFF $count=2 $X=3.455
+ $Y=0.5 $X2=3.595 $Y2=0.645
.ends

.subckt PM_SKY130_FD_SC_HS__A221O_4%A_1102_392# 1 2 3 4 13 17 21 23 27 33 34
r42 32 33 8.55446 $w=3.73e-07 $l=1.65e-07 $layer=LI1_cond $X=6.535 $Y=2.887
+ $X2=6.7 $Y2=2.887
r43 27 30 32.7294 $w=2.48e-07 $l=7.1e-07 $layer=LI1_cond $X=8.705 $Y=2.105
+ $X2=8.705 $Y2=2.815
r44 25 30 4.14879 $w=2.48e-07 $l=9e-08 $layer=LI1_cond $X=8.705 $Y=2.905
+ $X2=8.705 $Y2=2.815
r45 24 34 8.61065 $w=1.7e-07 $l=1.65e-07 $layer=LI1_cond $X=7.755 $Y=2.99
+ $X2=7.59 $Y2=2.99
r46 23 25 7.14316 $w=1.7e-07 $l=1.62019e-07 $layer=LI1_cond $X=8.58 $Y=2.99
+ $X2=8.705 $Y2=2.905
r47 23 24 53.8235 $w=1.68e-07 $l=8.25e-07 $layer=LI1_cond $X=8.58 $Y=2.99
+ $X2=7.755 $Y2=2.99
r48 19 34 0.89609 $w=3.3e-07 $l=8.5e-08 $layer=LI1_cond $X=7.59 $Y=2.905
+ $X2=7.59 $Y2=2.99
r49 19 21 18.3343 $w=3.28e-07 $l=5.25e-07 $layer=LI1_cond $X=7.59 $Y=2.905
+ $X2=7.59 $Y2=2.38
r50 17 34 8.61065 $w=1.7e-07 $l=1.65e-07 $layer=LI1_cond $X=7.425 $Y=2.99
+ $X2=7.59 $Y2=2.99
r51 17 33 47.2995 $w=1.68e-07 $l=7.25e-07 $layer=LI1_cond $X=7.425 $Y=2.99
+ $X2=6.7 $Y2=2.99
r52 13 32 0.6761 $w=3.73e-07 $l=2.2e-08 $layer=LI1_cond $X=6.513 $Y=2.887
+ $X2=6.535 $Y2=2.887
r53 13 15 26.9825 $w=3.73e-07 $l=8.78e-07 $layer=LI1_cond $X=6.513 $Y=2.887
+ $X2=5.635 $Y2=2.887
r54 4 30 400 $w=1.7e-07 $l=9.26971e-07 $layer=licon1_PDIFF $count=1 $X=8.515
+ $Y=1.96 $X2=8.665 $Y2=2.815
r55 4 27 400 $w=1.7e-07 $l=2.10357e-07 $layer=licon1_PDIFF $count=1 $X=8.515
+ $Y=1.96 $X2=8.665 $Y2=2.105
r56 3 21 300 $w=1.7e-07 $l=5.51815e-07 $layer=licon1_PDIFF $count=2 $X=7.285
+ $Y=1.96 $X2=7.59 $Y2=2.38
r57 2 32 600 $w=1.7e-07 $l=9.11921e-07 $layer=licon1_PDIFF $count=1 $X=6.385
+ $Y=1.96 $X2=6.535 $Y2=2.8
r58 1 15 600 $w=1.7e-07 $l=9.00333e-07 $layer=licon1_PDIFF $count=1 $X=5.51
+ $Y=1.96 $X2=5.635 $Y2=2.8
.ends

.subckt PM_SKY130_FD_SC_HS__A221O_4%A_71_135# 1 2 3 10 15 16 17 20 24
c53 20 0 1.08291e-19 $X=2.675 $Y=1.055
c54 17 0 1.22861e-20 $X=1.425 $Y=1.325
c55 15 0 1.82203e-19 $X=1.34 $Y=1.035
r56 18 20 8.52808 $w=2.48e-07 $l=1.85e-07 $layer=LI1_cond $X=2.635 $Y=1.24
+ $X2=2.635 $Y2=1.055
r57 16 18 7.14316 $w=1.7e-07 $l=1.62019e-07 $layer=LI1_cond $X=2.51 $Y=1.325
+ $X2=2.635 $Y2=1.24
r58 16 17 70.7861 $w=1.68e-07 $l=1.085e-06 $layer=LI1_cond $X=2.51 $Y=1.325
+ $X2=1.425 $Y2=1.325
r59 13 17 6.81649 $w=1.7e-07 $l=1.20208e-07 $layer=LI1_cond $X=1.34 $Y=1.24
+ $X2=1.425 $Y2=1.325
r60 13 15 13.3743 $w=1.68e-07 $l=2.05e-07 $layer=LI1_cond $X=1.34 $Y=1.24
+ $X2=1.34 $Y2=1.035
r61 12 15 8.48128 $w=1.68e-07 $l=1.3e-07 $layer=LI1_cond $X=1.34 $Y=0.905
+ $X2=1.34 $Y2=1.035
r62 11 24 2.99516 $w=1.7e-07 $l=1.25e-07 $layer=LI1_cond $X=0.565 $Y=0.82
+ $X2=0.44 $Y2=0.82
r63 10 12 6.81649 $w=1.7e-07 $l=1.20208e-07 $layer=LI1_cond $X=1.255 $Y=0.82
+ $X2=1.34 $Y2=0.905
r64 10 11 45.016 $w=1.68e-07 $l=6.9e-07 $layer=LI1_cond $X=1.255 $Y=0.82
+ $X2=0.565 $Y2=0.82
r65 3 20 182 $w=1.7e-07 $l=5.05173e-07 $layer=licon1_NDIFF $count=1 $X=2.535
+ $Y=0.615 $X2=2.675 $Y2=1.055
r66 2 15 182 $w=1.7e-07 $l=4.24264e-07 $layer=licon1_NDIFF $count=1 $X=1.2
+ $Y=0.675 $X2=1.34 $Y2=1.035
r67 1 24 182 $w=1.7e-07 $l=2.08327e-07 $layer=licon1_NDIFF $count=1 $X=0.355
+ $Y=0.675 $X2=0.48 $Y2=0.83
.ends

.subckt PM_SKY130_FD_SC_HS__A221O_4%VGND 1 2 3 4 5 6 20 23 27 31 34 37 41 44 45
+ 49 52 53 55 56 60 62 71 79 87 93 94 97 100 103
c142 41 0 3.65222e-20 $X=7.3 $Y=0.925
c143 23 0 1.13409e-19 $X=3.165 $Y=0.66
r144 103 104 3.72 $w=1.7e-07 $l=4.25e-07 $layer=mcon $count=2 $X=7.44 $Y=0
+ $X2=7.44 $Y2=0
r145 100 101 9.3 $w=1.7e-07 $l=1.7e-07 $layer=mcon $count=1 $X=5.04 $Y=0
+ $X2=5.04 $Y2=0
r146 97 98 9.3 $w=1.7e-07 $l=1.7e-07 $layer=mcon $count=1 $X=3.12 $Y=0 $X2=3.12
+ $Y2=0
r147 94 104 0.535171 $w=4.9e-07 $l=1.92e-06 $layer=MET1_cond $X=9.36 $Y=0
+ $X2=7.44 $Y2=0
r148 93 94 3.72 $w=1.7e-07 $l=4.25e-07 $layer=mcon $count=2 $X=9.36 $Y=0
+ $X2=9.36 $Y2=0
r149 91 103 7.02821 $w=1.7e-07 $l=1.25e-07 $layer=LI1_cond $X=7.465 $Y=0
+ $X2=7.34 $Y2=0
r150 91 93 123.631 $w=1.68e-07 $l=1.895e-06 $layer=LI1_cond $X=7.465 $Y=0
+ $X2=9.36 $Y2=0
r151 90 104 0.133793 $w=4.9e-07 $l=4.8e-07 $layer=MET1_cond $X=6.96 $Y=0
+ $X2=7.44 $Y2=0
r152 89 90 4.65 $w=1.7e-07 $l=3.4e-07 $layer=mcon $count=2 $X=6.96 $Y=0 $X2=6.96
+ $Y2=0
r153 87 103 7.02821 $w=1.7e-07 $l=1.25e-07 $layer=LI1_cond $X=7.215 $Y=0
+ $X2=7.34 $Y2=0
r154 87 89 16.6364 $w=1.68e-07 $l=2.55e-07 $layer=LI1_cond $X=7.215 $Y=0
+ $X2=6.96 $Y2=0
r155 86 90 0.267585 $w=4.9e-07 $l=9.6e-07 $layer=MET1_cond $X=6 $Y=0 $X2=6.96
+ $Y2=0