* File: sky130_fd_sc_hs__ebufn_8.pex.spice
* Created: Thu Aug 27 20:44:20 2020
* Program "Calibre xRC"
* Version "v2018.4_34.26"
* Nominal Temperature: 27C
* Circuit Temperature: 27C
* 
.subckt PM_SKY130_FD_SC_HS__EBUFN_8%A_84_48# 1 2 9 11 13 16 18 20 23 25 27 30 32
+ 34 37 39 41 44 46 48 49 51 54 56 58 61 63 68 71 72 73 74 79 82 84 86 88 90 91
+ 93 98 102 120
c272 97 0 6.69633e-20 $X=3.655 $Y=1.485
c273 71 0 8.42804e-20 $X=3.955 $Y=2.05
c274 61 0 1.9142e-19 $X=3.81 $Y=0.74
c275 56 0 1.85036e-19 $X=3.795 $Y=1.765
r276 120 121 1.91777 $w=3.77e-07 $l=1.5e-08 $layer=POLY_cond $X=3.795 $Y=1.542
+ $X2=3.81 $Y2=1.542
r277 117 118 1.91777 $w=3.77e-07 $l=1.5e-08 $layer=POLY_cond $X=3.31 $Y=1.542
+ $X2=3.325 $Y2=1.542
r278 116 117 63.9257 $w=3.77e-07 $l=5e-07 $layer=POLY_cond $X=2.81 $Y=1.542
+ $X2=3.31 $Y2=1.542
r279 115 116 57.5332 $w=3.77e-07 $l=4.5e-07 $layer=POLY_cond $X=2.36 $Y=1.542
+ $X2=2.81 $Y2=1.542
r280 114 115 6.39257 $w=3.77e-07 $l=5e-08 $layer=POLY_cond $X=2.31 $Y=1.542
+ $X2=2.36 $Y2=1.542
r281 113 114 51.1406 $w=3.77e-07 $l=4e-07 $layer=POLY_cond $X=1.91 $Y=1.542
+ $X2=2.31 $Y2=1.542
r282 112 113 12.7851 $w=3.77e-07 $l=1e-07 $layer=POLY_cond $X=1.81 $Y=1.542
+ $X2=1.91 $Y2=1.542
r283 111 112 51.1406 $w=3.77e-07 $l=4e-07 $layer=POLY_cond $X=1.41 $Y=1.542
+ $X2=1.81 $Y2=1.542
r284 110 111 3.83554 $w=3.77e-07 $l=3e-08 $layer=POLY_cond $X=1.38 $Y=1.542
+ $X2=1.41 $Y2=1.542
r285 107 108 4.4748 $w=3.77e-07 $l=3.5e-08 $layer=POLY_cond $X=0.925 $Y=1.542
+ $X2=0.96 $Y2=1.542
r286 106 107 53.0584 $w=3.77e-07 $l=4.15e-07 $layer=POLY_cond $X=0.51 $Y=1.542
+ $X2=0.925 $Y2=1.542
r287 105 106 1.91777 $w=3.77e-07 $l=1.5e-08 $layer=POLY_cond $X=0.495 $Y=1.542
+ $X2=0.51 $Y2=1.542
r288 98 100 11.0909 $w=1.68e-07 $l=1.7e-07 $layer=LI1_cond $X=7.67 $Y=2.135
+ $X2=7.67 $Y2=2.305
r289 96 120 35.1592 $w=3.77e-07 $l=2.75e-07 $layer=POLY_cond $X=3.52 $Y=1.542
+ $X2=3.795 $Y2=1.542
r290 96 118 24.931 $w=3.77e-07 $l=1.95e-07 $layer=POLY_cond $X=3.52 $Y=1.542
+ $X2=3.325 $Y2=1.542
r291 95 97 7.4145 $w=3.28e-07 $l=1.35e-07 $layer=LI1_cond $X=3.52 $Y=1.485
+ $X2=3.655 $Y2=1.485
r292 95 96 36.32 $w=1.7e-07 $l=6.8e-07 $layer=licon1_POLY $count=4 $X=3.52
+ $Y=1.485 $X2=3.52 $Y2=1.485
r293 92 93 46.3209 $w=1.68e-07 $l=7.1e-07 $layer=LI1_cond $X=10.23 $Y=1.01
+ $X2=10.23 $Y2=1.72
r294 90 93 6.81649 $w=1.7e-07 $l=1.20208e-07 $layer=LI1_cond $X=10.145 $Y=1.805
+ $X2=10.23 $Y2=1.72
r295 90 91 13.0481 $w=1.68e-07 $l=2e-07 $layer=LI1_cond $X=10.145 $Y=1.805
+ $X2=9.945 $Y2=1.805
r296 89 104 4.25188 $w=1.7e-07 $l=1.25e-07 $layer=LI1_cond $X=9.93 $Y=0.925
+ $X2=9.805 $Y2=0.925
r297 88 92 6.81649 $w=1.7e-07 $l=1.20208e-07 $layer=LI1_cond $X=10.145 $Y=0.925
+ $X2=10.23 $Y2=1.01
r298 88 89 14.0267 $w=1.68e-07 $l=2.15e-07 $layer=LI1_cond $X=10.145 $Y=0.925
+ $X2=9.93 $Y2=0.925
r299 84 104 2.89128 $w=2.5e-07 $l=8.5e-08 $layer=LI1_cond $X=9.805 $Y=0.84
+ $X2=9.805 $Y2=0.925
r300 84 86 15.4427 $w=2.48e-07 $l=3.35e-07 $layer=LI1_cond $X=9.805 $Y=0.84
+ $X2=9.805 $Y2=0.505
r301 80 102 3.351 $w=2.8e-07 $l=8.5e-08 $layer=LI1_cond $X=9.805 $Y=2.39
+ $X2=9.805 $Y2=2.305
r302 80 82 17.4924 $w=2.78e-07 $l=4.25e-07 $layer=LI1_cond $X=9.805 $Y=2.39
+ $X2=9.805 $Y2=2.815
r303 77 102 3.351 $w=2.8e-07 $l=8.5e-08 $layer=LI1_cond $X=9.805 $Y=2.22
+ $X2=9.805 $Y2=2.305
r304 77 79 9.67229 $w=2.78e-07 $l=2.35e-07 $layer=LI1_cond $X=9.805 $Y=2.22
+ $X2=9.805 $Y2=1.985
r305 76 91 7.36005 $w=1.7e-07 $l=1.77482e-07 $layer=LI1_cond $X=9.805 $Y=1.89
+ $X2=9.945 $Y2=1.805
r306 76 79 3.91007 $w=2.78e-07 $l=9.5e-08 $layer=LI1_cond $X=9.805 $Y=1.89
+ $X2=9.805 $Y2=1.985
r307 75 100 0.716491 $w=1.7e-07 $l=8.5e-08 $layer=LI1_cond $X=7.755 $Y=2.305
+ $X2=7.67 $Y2=2.305
r308 74 102 3.18746 $w=1.7e-07 $l=1.4e-07 $layer=LI1_cond $X=9.665 $Y=2.305
+ $X2=9.805 $Y2=2.305
r309 74 75 124.61 $w=1.68e-07 $l=1.91e-06 $layer=LI1_cond $X=9.665 $Y=2.305
+ $X2=7.755 $Y2=2.305
r310 72 98 0.716491 $w=1.7e-07 $l=8.5e-08 $layer=LI1_cond $X=7.585 $Y=2.135
+ $X2=7.67 $Y2=2.135
r311 72 73 231.278 $w=1.68e-07 $l=3.545e-06 $layer=LI1_cond $X=7.585 $Y=2.135
+ $X2=4.04 $Y2=2.135
r312 71 73 6.81649 $w=1.7e-07 $l=1.20208e-07 $layer=LI1_cond $X=3.955 $Y=2.05
+ $X2=4.04 $Y2=2.135
r313 70 71 26.0963 $w=1.68e-07 $l=4e-07 $layer=LI1_cond $X=3.955 $Y=1.65
+ $X2=3.955 $Y2=2.05
r314 68 70 6.81649 $w=1.7e-07 $l=1.20208e-07 $layer=LI1_cond $X=3.87 $Y=1.565
+ $X2=3.955 $Y2=1.65
r315 68 97 14.0267 $w=1.68e-07 $l=2.15e-07 $layer=LI1_cond $X=3.87 $Y=1.565
+ $X2=3.655 $Y2=1.565
r316 66 110 30.6844 $w=3.77e-07 $l=2.4e-07 $layer=POLY_cond $X=1.14 $Y=1.542
+ $X2=1.38 $Y2=1.542
r317 66 108 23.0133 $w=3.77e-07 $l=1.8e-07 $layer=POLY_cond $X=1.14 $Y=1.542
+ $X2=0.96 $Y2=1.542
r318 65 66 36.32 $w=1.7e-07 $l=6.8e-07 $layer=licon1_POLY $count=4 $X=1.14
+ $Y=1.485 $X2=1.14 $Y2=1.485
r319 63 95 1.04768 $w=3.28e-07 $l=3e-08 $layer=LI1_cond $X=3.49 $Y=1.485
+ $X2=3.52 $Y2=1.485
r320 63 65 82.0679 $w=3.28e-07 $l=2.35e-06 $layer=LI1_cond $X=3.49 $Y=1.485
+ $X2=1.14 $Y2=1.485
r321 59 121 24.4204 $w=1.5e-07 $l=2.22e-07 $layer=POLY_cond $X=3.81 $Y=1.32
+ $X2=3.81 $Y2=1.542
r322 59 61 297.404 $w=1.5e-07 $l=5.8e-07 $layer=POLY_cond $X=3.81 $Y=1.32
+ $X2=3.81 $Y2=0.74
r323 56 120 24.4204 $w=1.5e-07 $l=2.23e-07 $layer=POLY_cond $X=3.795 $Y=1.765
+ $X2=3.795 $Y2=1.542
r324 56 58 204.047 $w=1.5e-07 $l=6.35e-07 $layer=POLY_cond $X=3.795 $Y=1.765
+ $X2=3.795 $Y2=2.4
r325 52 118 24.4204 $w=1.5e-07 $l=2.22e-07 $layer=POLY_cond $X=3.325 $Y=1.32
+ $X2=3.325 $Y2=1.542
r326 52 54 297.404 $w=1.5e-07 $l=5.8e-07 $layer=POLY_cond $X=3.325 $Y=1.32
+ $X2=3.325 $Y2=0.74
r327 49 117 24.4204 $w=1.5e-07 $l=2.23e-07 $layer=POLY_cond $X=3.31 $Y=1.765
+ $X2=3.31 $Y2=1.542
r328 49 51 204.047 $w=1.5e-07 $l=6.35e-07 $layer=POLY_cond $X=3.31 $Y=1.765
+ $X2=3.31 $Y2=2.4
r329 46 116 24.4204 $w=1.5e-07 $l=2.23e-07 $layer=POLY_cond $X=2.81 $Y=1.765
+ $X2=2.81 $Y2=1.542
r330 46 48 204.047 $w=1.5e-07 $l=6.35e-07 $layer=POLY_cond $X=2.81 $Y=1.765
+ $X2=2.81 $Y2=2.4
r331 42 116 24.4204 $w=1.5e-07 $l=2.22e-07 $layer=POLY_cond $X=2.81 $Y=1.32
+ $X2=2.81 $Y2=1.542
r332 42 44 297.404 $w=1.5e-07 $l=5.8e-07 $layer=POLY_cond $X=2.81 $Y=1.32
+ $X2=2.81 $Y2=0.74
r333 39 115 24.4204 $w=1.5e-07 $l=2.23e-07 $layer=POLY_cond $X=2.36 $Y=1.765
+ $X2=2.36 $Y2=1.542
r334 39 41 204.047 $w=1.5e-07 $l=6.35e-07 $layer=POLY_cond $X=2.36 $Y=1.765
+ $X2=2.36 $Y2=2.4
r335 35 114 24.4204 $w=1.5e-07 $l=2.22e-07 $layer=POLY_cond $X=2.31 $Y=1.32
+ $X2=2.31 $Y2=1.542
r336 35 37 297.404 $w=1.5e-07 $l=5.8e-07 $layer=POLY_cond $X=2.31 $Y=1.32
+ $X2=2.31 $Y2=0.74
r337 32 113 24.4204 $w=1.5e-07 $l=2.23e-07 $layer=POLY_cond $X=1.91 $Y=1.765
+ $X2=1.91 $Y2=1.542
r338 32 34 204.047 $w=1.5e-07 $l=6.35e-07 $layer=POLY_cond $X=1.91 $Y=1.765
+ $X2=1.91 $Y2=2.4
r339 28 112 24.4204 $w=1.5e-07 $l=2.22e-07 $layer=POLY_cond $X=1.81 $Y=1.32
+ $X2=1.81 $Y2=1.542
r340 28 30 297.404 $w=1.5e-07 $l=5.8e-07 $layer=POLY_cond $X=1.81 $Y=1.32
+ $X2=1.81 $Y2=0.74
r341 25 111 24.4204 $w=1.5e-07 $l=2.23e-07 $layer=POLY_cond $X=1.41 $Y=1.765
+ $X2=1.41 $Y2=1.542
r342 25 27 204.047 $w=1.5e-07 $l=6.35e-07 $layer=POLY_cond $X=1.41 $Y=1.765
+ $X2=1.41 $Y2=2.4
r343 21 110 24.4204 $w=1.5e-07 $l=2.22e-07 $layer=POLY_cond $X=1.38 $Y=1.32
+ $X2=1.38 $Y2=1.542
r344 21 23 297.404 $w=1.5e-07 $l=5.8e-07 $layer=POLY_cond $X=1.38 $Y=1.32
+ $X2=1.38 $Y2=0.74
r345 18 108 24.4204 $w=1.5e-07 $l=2.23e-07 $layer=POLY_cond $X=0.96 $Y=1.765
+ $X2=0.96 $Y2=1.542
r346 18 20 204.047 $w=1.5e-07 $l=6.35e-07 $layer=POLY_cond $X=0.96 $Y=1.765
+ $X2=0.96 $Y2=2.4
r347 14 107 24.4204 $w=1.5e-07 $l=2.22e-07 $layer=POLY_cond $X=0.925 $Y=1.32
+ $X2=0.925 $Y2=1.542
r348 14 16 297.404 $w=1.5e-07 $l=5.8e-07 $layer=POLY_cond $X=0.925 $Y=1.32
+ $X2=0.925 $Y2=0.74
r349 11 106 24.4204 $w=1.5e-07 $l=2.23e-07 $layer=POLY_cond $X=0.51 $Y=1.765
+ $X2=0.51 $Y2=1.542
r350 11 13 204.047 $w=1.5e-07 $l=6.35e-07 $layer=POLY_cond $X=0.51 $Y=1.765
+ $X2=0.51 $Y2=2.4
r351 7 105 24.4204 $w=1.5e-07 $l=2.22e-07 $layer=POLY_cond $X=0.495 $Y=1.32
+ $X2=0.495 $Y2=1.542
r352 7 9 297.404 $w=1.5e-07 $l=5.8e-07 $layer=POLY_cond $X=0.495 $Y=1.32
+ $X2=0.495 $Y2=0.74
r353 2 82 400 $w=1.7e-07 $l=1.04732e-06 $layer=licon1_PDIFF $count=1 $X=9.68
+ $Y=1.84 $X2=9.83 $Y2=2.815
r354 2 79 400 $w=1.7e-07 $l=2.10357e-07 $layer=licon1_PDIFF $count=1 $X=9.68
+ $Y=1.84 $X2=9.83 $Y2=1.985
r355 1 104 182 $w=1.7e-07 $l=6.21068e-07 $layer=licon1_NDIFF $count=1 $X=9.705
+ $Y=0.37 $X2=9.845 $Y2=0.925
r356 1 86 182 $w=1.7e-07 $l=1.96214e-07 $layer=licon1_NDIFF $count=1 $X=9.705
+ $Y=0.37 $X2=9.845 $Y2=0.505
.ends

.subckt PM_SKY130_FD_SC_HS__EBUFN_8%A_833_48# 1 2 7 9 10 11 12 14 15 17 19 20 22
+ 24 25 27 29 30 32 34 35 37 39 40 42 44 45 48 49 50 51 52 53 54 55 56 58 59 62
+ 64 66 68
c165 58 0 1.51364e-19 $X=8.01 $Y=1.8
c166 17 0 2.61838e-20 $X=5.1 $Y=1.185
c167 11 0 6.69633e-20 $X=4.315 $Y=1.26
c168 7 0 7.54658e-20 $X=4.24 $Y=1.185
r169 71 73 3.15083 $w=4.84e-07 $l=1.25e-07 $layer=LI1_cond $X=7.885 $Y=0.67
+ $X2=8.01 $Y2=0.67
r170 71 72 96.8533 $w=1.7e-07 $l=2.55e-07 $layer=licon1_POLY $count=1 $X=7.885
+ $Y=0.505 $X2=7.885 $Y2=0.505
r171 66 68 31.116 $w=2.48e-07 $l=6.75e-07 $layer=LI1_cond $X=8.095 $Y=1.925
+ $X2=8.77 $Y2=1.925
r172 62 72 118.906 $w=3.3e-07 $l=6.8e-07 $layer=POLY_cond $X=8.565 $Y=0.505
+ $X2=7.885 $Y2=0.505
r173 61 64 7.49781 $w=6.68e-07 $l=4.2e-07 $layer=LI1_cond $X=8.565 $Y=0.675
+ $X2=8.985 $Y2=0.675
r174 61 62 96.8533 $w=1.7e-07 $l=2.55e-07 $layer=licon1_POLY $count=1 $X=8.565
+ $Y=0.505 $X2=8.565 $Y2=0.505
r175 59 73 2.5084 $w=6.7e-07 $l=8.74643e-08 $layer=LI1_cond $X=8.095 $Y=0.675
+ $X2=8.01 $Y2=0.67
r176 59 61 8.3904 $w=6.68e-07 $l=4.7e-07 $layer=LI1_cond $X=8.095 $Y=0.675
+ $X2=8.565 $Y2=0.675
r177 58 66 7.14316 $w=2.5e-07 $l=1.62019e-07 $layer=LI1_cond $X=8.01 $Y=1.8
+ $X2=8.095 $Y2=1.925
r178 57 73 6.95298 $w=1.7e-07 $l=3.4e-07 $layer=LI1_cond $X=8.01 $Y=1.01
+ $X2=8.01 $Y2=0.67
r179 57 58 51.5401 $w=1.68e-07 $l=7.9e-07 $layer=LI1_cond $X=8.01 $Y=1.01
+ $X2=8.01 $Y2=1.8
r180 56 72 2.62292 $w=3.3e-07 $l=1.5e-08 $layer=POLY_cond $X=7.87 $Y=0.505
+ $X2=7.885 $Y2=0.505
r181 47 56 32.1775 $w=3.3e-07 $l=1.98997e-07 $layer=POLY_cond $X=7.795 $Y=0.67
+ $X2=7.87 $Y2=0.505
r182 47 48 264.074 $w=1.5e-07 $l=5.15e-07 $layer=POLY_cond $X=7.795 $Y=0.67
+ $X2=7.795 $Y2=1.185
r183 46 55 20.4101 $w=1.5e-07 $l=7.5e-08 $layer=POLY_cond $X=7.325 $Y=1.26
+ $X2=7.25 $Y2=1.26
r184 45 48 26.9307 $w=1.5e-07 $l=1.06066e-07 $layer=POLY_cond $X=7.72 $Y=1.26
+ $X2=7.795 $Y2=1.185
r185 45 46 202.543 $w=1.5e-07 $l=3.95e-07 $layer=POLY_cond $X=7.72 $Y=1.26
+ $X2=7.325 $Y2=1.26
r186 42 55 5.30422 $w=1.5e-07 $l=7.5e-08 $layer=POLY_cond $X=7.25 $Y=1.185
+ $X2=7.25 $Y2=1.26
r187 42 44 142.993 $w=1.5e-07 $l=4.45e-07 $layer=POLY_cond $X=7.25 $Y=1.185
+ $X2=7.25 $Y2=0.74
r188 41 54 20.4101 $w=1.5e-07 $l=7.5e-08 $layer=POLY_cond $X=6.895 $Y=1.26
+ $X2=6.82 $Y2=1.26
r189 40 55 20.4101 $w=1.5e-07 $l=7.5e-08 $layer=POLY_cond $X=7.175 $Y=1.26
+ $X2=7.25 $Y2=1.26
r190 40 41 143.574 $w=1.5e-07 $l=2.8e-07 $layer=POLY_cond $X=7.175 $Y=1.26
+ $X2=6.895 $Y2=1.26
r191 37 54 5.30422 $w=1.5e-07 $l=7.5e-08 $layer=POLY_cond $X=6.82 $Y=1.185
+ $X2=6.82 $Y2=1.26
r192 37 39 142.993 $w=1.5e-07 $l=4.45e-07 $layer=POLY_cond $X=6.82 $Y=1.185
+ $X2=6.82 $Y2=0.74
r193 36 53 20.4101 $w=1.5e-07 $l=7.5e-08 $layer=POLY_cond $X=6.465 $Y=1.26
+ $X2=6.39 $Y2=1.26
r194 35 54 20.4101 $w=1.5e-07 $l=7.5e-08 $layer=POLY_cond $X=6.745 $Y=1.26
+ $X2=6.82 $Y2=1.26
r195 35 36 143.574 $w=1.5e-07 $l=2.8e-07 $layer=POLY_cond $X=6.745 $Y=1.26
+ $X2=6.465 $Y2=1.26
r196 32 53 5.30422 $w=1.5e-07 $l=7.5e-08 $layer=POLY_cond $X=6.39 $Y=1.185
+ $X2=6.39 $Y2=1.26
r197 32 34 142.993 $w=1.5e-07 $l=4.45e-07 $layer=POLY_cond $X=6.39 $Y=1.185
+ $X2=6.39 $Y2=0.74
r198 31 52 20.4101 $w=1.5e-07 $l=7.5e-08 $layer=POLY_cond $X=6.035 $Y=1.26
+ $X2=5.96 $Y2=1.26
r199 30 53 20.4101 $w=1.5e-07 $l=7.5e-08 $layer=POLY_cond $X=6.315 $Y=1.26
+ $X2=6.39 $Y2=1.26
r200 30 31 143.574 $w=1.5e-07 $l=2.8e-07 $layer=POLY_cond $X=6.315 $Y=1.26
+ $X2=6.035 $Y2=1.26
r201 27 52 5.30422 $w=1.5e-07 $l=7.5e-08 $layer=POLY_cond $X=5.96 $Y=1.185
+ $X2=5.96 $Y2=1.26
r202 27 29 142.993 $w=1.5e-07 $l=4.45e-07 $layer=POLY_cond $X=5.96 $Y=1.185
+ $X2=5.96 $Y2=0.74
r203 26 51 20.4101 $w=1.5e-07 $l=7.5e-08 $layer=POLY_cond $X=5.605 $Y=1.26
+ $X2=5.53 $Y2=1.26
r204 25 52 20.4101 $w=1.5e-07 $l=7.5e-08 $layer=POLY_cond $X=5.885 $Y=1.26
+ $X2=5.96 $Y2=1.26
r205 25 26 143.574 $w=1.5e-07 $l=2.8e-07 $layer=POLY_cond $X=5.885 $Y=1.26
+ $X2=5.605 $Y2=1.26
r206 22 51 5.30422 $w=1.5e-07 $l=7.5e-08 $layer=POLY_cond $X=5.53 $Y=1.185
+ $X2=5.53 $Y2=1.26
r207 22 24 142.993 $w=1.5e-07 $l=4.45e-07 $layer=POLY_cond $X=5.53 $Y=1.185
+ $X2=5.53 $Y2=0.74
r208 21 50 20.4101 $w=1.5e-07 $l=7.5e-08 $layer=POLY_cond $X=5.175 $Y=1.26
+ $X2=5.1 $Y2=1.26
r209 20 51 20.4101 $w=1.5e-07 $l=7.5e-08 $layer=POLY_cond $X=5.455 $Y=1.26
+ $X2=5.53 $Y2=1.26
r210 20 21 143.574 $w=1.5e-07 $l=2.8e-07 $layer=POLY_cond $X=5.455 $Y=1.26
+ $X2=5.175 $Y2=1.26
r211 17 50 5.30422 $w=1.5e-07 $l=7.5e-08 $layer=POLY_cond $X=5.1 $Y=1.185
+ $X2=5.1 $Y2=1.26
r212 17 19 142.993 $w=1.5e-07 $l=4.45e-07 $layer=POLY_cond $X=5.1 $Y=1.185
+ $X2=5.1 $Y2=0.74
r213 16 49 20.4101 $w=1.5e-07 $l=7.5e-08 $layer=POLY_cond $X=4.745 $Y=1.26
+ $X2=4.67 $Y2=1.26
r214 15 50 20.4101 $w=1.5e-07 $l=7.5e-08 $layer=POLY_cond $X=5.025 $Y=1.26
+ $X2=5.1 $Y2=1.26
r215 15 16 143.574 $w=1.5e-07 $l=2.8e-07 $layer=POLY_cond $X=5.025 $Y=1.26
+ $X2=4.745 $Y2=1.26
r216 12 49 5.30422 $w=1.5e-07 $l=7.5e-08 $layer=POLY_cond $X=4.67 $Y=1.185
+ $X2=4.67 $Y2=1.26
r217 12 14 142.993 $w=1.5e-07 $l=4.45e-07 $layer=POLY_cond $X=4.67 $Y=1.185
+ $X2=4.67 $Y2=0.74
r218 10 49 20.4101 $w=1.5e-07 $l=7.5e-08 $layer=POLY_cond $X=4.595 $Y=1.26
+ $X2=4.67 $Y2=1.26
r219 10 11 143.574 $w=1.5e-07 $l=2.8e-07 $layer=POLY_cond $X=4.595 $Y=1.26
+ $X2=4.315 $Y2=1.26
r220 7 11 26.9307 $w=1.5e-07 $l=1.06066e-07 $layer=POLY_cond $X=4.24 $Y=1.185
+ $X2=4.315 $Y2=1.26
r221 7 9 142.993 $w=1.5e-07 $l=4.45e-07 $layer=POLY_cond $X=4.24 $Y=1.185
+ $X2=4.24 $Y2=0.74
r222 2 68 600 $w=1.7e-07 $l=3.06186e-07 $layer=licon1_PDIFF $count=1 $X=8.52
+ $Y=1.84 $X2=8.77 $Y2=1.965
r223 1 64 91 $w=1.7e-07 $l=2.05061e-07 $layer=licon1_NDIFF $count=2 $X=8.84
+ $Y=0.37 $X2=8.985 $Y2=0.515
.ends

.subckt PM_SKY130_FD_SC_HS__EBUFN_8%TE_B 1 3 4 5 6 8 9 11 13 14 16 18 19 21 23
+ 24 26 28 29 31 33 34 36 38 41 42 43 45 46 48 49 50 51 52 53 54 55 56 57 58 65
+ 67
c184 31 0 1.51364e-19 $X=7.26 $Y=1.765
r185 67 68 96.8533 $w=1.7e-07 $l=2.55e-07 $layer=licon1_POLY $count=1 $X=9.11
+ $Y=1.385 $X2=9.11 $Y2=1.385
r186 63 65 47.8511 $w=5.45e-07 $l=1.65e-07 $layer=POLY_cond $X=8.43 $Y=1.492
+ $X2=8.265 $Y2=1.492
r187 63 64 96.8533 $w=1.7e-07 $l=2.55e-07 $layer=licon1_POLY $count=1 $X=8.43
+ $Y=1.385 $X2=8.43 $Y2=1.385
r188 58 68 7.78678 $w=3.68e-07 $l=2.5e-07 $layer=LI1_cond $X=9.36 $Y=1.365
+ $X2=9.11 $Y2=1.365
r189 57 68 7.16384 $w=3.68e-07 $l=2.3e-07 $layer=LI1_cond $X=8.88 $Y=1.365
+ $X2=9.11 $Y2=1.365
r190 57 64 14.0162 $w=3.68e-07 $l=4.5e-07 $layer=LI1_cond $X=8.88 $Y=1.365
+ $X2=8.43 $Y2=1.365
r191 56 64 0.934413 $w=3.68e-07 $l=3e-08 $layer=LI1_cond $X=8.4 $Y=1.365
+ $X2=8.43 $Y2=1.365
r192 46 67 50.4302 $w=1.5e-07 $l=1.7e-07 $layer=POLY_cond $X=9.2 $Y=1.22
+ $X2=9.03 $Y2=1.22
r193 46 48 154.24 $w=1.5e-07 $l=4.8e-07 $layer=POLY_cond $X=9.2 $Y=1.22 $X2=9.2
+ $Y2=0.74
r194 43 67 50.4302 $w=1.5e-07 $l=5.81292e-07 $layer=POLY_cond $X=9.105 $Y=1.765
+ $X2=9.03 $Y2=1.22
r195 43 45 204.047 $w=1.5e-07 $l=6.35e-07 $layer=POLY_cond $X=9.105 $Y=1.765
+ $X2=9.105 $Y2=2.4
r196 42 63 10.5042 $w=5.45e-07 $l=1.07e-07 $layer=POLY_cond $X=8.537 $Y=1.492
+ $X2=8.43 $Y2=1.492
r197 41 67 10.2225 $w=5.45e-07 $l=2.72e-07 $layer=POLY_cond $X=9.03 $Y=1.492
+ $X2=9.03 $Y2=1.22
r198 41 42 48.3981 $w=5.45e-07 $l=4.93e-07 $layer=POLY_cond $X=9.03 $Y=1.492
+ $X2=8.537 $Y2=1.492
r199 40 55 20.4101 $w=1.5e-07 $l=7.5e-08 $layer=POLY_cond $X=7.955 $Y=1.69
+ $X2=7.88 $Y2=1.69
r200 40 65 158.957 $w=1.5e-07 $l=3.1e-07 $layer=POLY_cond $X=7.955 $Y=1.69
+ $X2=8.265 $Y2=1.69
r201 36 55 5.30422 $w=1.5e-07 $l=7.5e-08 $layer=POLY_cond $X=7.88 $Y=1.765
+ $X2=7.88 $Y2=1.69
r202 36 38 204.047 $w=1.5e-07 $l=6.35e-07 $layer=POLY_cond $X=7.88 $Y=1.765
+ $X2=7.88 $Y2=2.4
r203 35 54 20.4101 $w=1.5e-07 $l=7.5e-08 $layer=POLY_cond $X=7.335 $Y=1.69
+ $X2=7.26 $Y2=1.69
r204 34 55 20.4101 $w=1.5e-07 $l=7.5e-08 $layer=POLY_cond $X=7.805 $Y=1.69
+ $X2=7.88 $Y2=1.69
r205 34 35 241 $w=1.5e-07 $l=4.7e-07 $layer=POLY_cond $X=7.805 $Y=1.69 $X2=7.335
+ $Y2=1.69
r206 31 54 5.30422 $w=1.5e-07 $l=7.5e-08 $layer=POLY_cond $X=7.26 $Y=1.765
+ $X2=7.26 $Y2=1.69
r207 31 33 204.047 $w=1.5e-07 $l=6.35e-07 $layer=POLY_cond $X=7.26 $Y=1.765
+ $X2=7.26 $Y2=2.4
r208 30 53 20.4101 $w=1.5e-07 $l=7.5e-08 $layer=POLY_cond $X=6.885 $Y=1.69
+ $X2=6.81 $Y2=1.69
r209 29 54 20.4101 $w=1.5e-07 $l=7.5e-08 $layer=POLY_cond $X=7.185 $Y=1.69
+ $X2=7.26 $Y2=1.69
r210 29 30 153.83 $w=1.5e-07 $l=3e-07 $layer=POLY_cond $X=7.185 $Y=1.69
+ $X2=6.885 $Y2=1.69
r211 26 53 5.30422 $w=1.5e-07 $l=7.5e-08 $layer=POLY_cond $X=6.81 $Y=1.765
+ $X2=6.81 $Y2=1.69
r212 26 28 204.047 $w=1.5e-07 $l=6.35e-07 $layer=POLY_cond $X=6.81 $Y=1.765
+ $X2=6.81 $Y2=2.4
r213 25 52 20.4101 $w=1.5e-07 $l=7.5e-08 $layer=POLY_cond $X=6.335 $Y=1.69
+ $X2=6.26 $Y2=1.69
r214 24 53 20.4101 $w=1.5e-07 $l=7.5e-08 $layer=POLY_cond $X=6.735 $Y=1.69
+ $X2=6.81 $Y2=1.69
r215 24 25 205.106 $w=1.5e-07 $l=4e-07 $layer=POLY_cond $X=6.735 $Y=1.69
+ $X2=6.335 $Y2=1.69
r216 21 52 5.30422 $w=1.5e-07 $l=7.5e-08 $layer=POLY_cond $X=6.26 $Y=1.765
+ $X2=6.26 $Y2=1.69
r217 21 23 204.047 $w=1.5e-07 $l=6.35e-07 $layer=POLY_cond $X=6.26 $Y=1.765
+ $X2=6.26 $Y2=2.4
r218 20 51 20.4101 $w=1.5e-07 $l=7.5e-08 $layer=POLY_cond $X=5.885 $Y=1.69
+ $X2=5.81 $Y2=1.69
r219 19 52 20.4101 $w=1.5e-07 $l=7.5e-08 $layer=POLY_cond $X=6.185 $Y=1.69
+ $X2=6.26 $Y2=1.69
r220 19 20 153.83 $w=1.5e-07 $l=3e-07 $layer=POLY_cond $X=6.185 $Y=1.69
+ $X2=5.885 $Y2=1.69
r221 16 51 5.30422 $w=1.5e-07 $l=7.5e-08 $layer=POLY_cond $X=5.81 $Y=1.765
+ $X2=5.81 $Y2=1.69
r222 16 18 204.047 $w=1.5e-07 $l=6.35e-07 $layer=POLY_cond $X=5.81 $Y=1.765
+ $X2=5.81 $Y2=2.4
r223 15 50 20.4101 $w=1.5e-07 $l=7.5e-08 $layer=POLY_cond $X=5.335 $Y=1.69
+ $X2=5.26 $Y2=1.69
r224 14 51 20.4101 $w=1.5e-07 $l=7.5e-08 $layer=POLY_cond $X=5.735 $Y=1.69
+ $X2=5.81 $Y2=1.69
r225 14 15 205.106 $w=1.5e-07 $l=4e-07 $layer=POLY_cond $X=5.735 $Y=1.69
+ $X2=5.335 $Y2=1.69
r226 11 50 5.30422 $w=1.5e-07 $l=7.5e-08 $layer=POLY_cond $X=5.26 $Y=1.765
+ $X2=5.26 $Y2=1.69
r227 11 13 204.047 $w=1.5e-07 $l=6.35e-07 $layer=POLY_cond $X=5.26 $Y=1.765
+ $X2=5.26 $Y2=2.4
r228 10 49 20.4101 $w=1.5e-07 $l=7.5e-08 $layer=POLY_cond $X=4.885 $Y=1.69
+ $X2=4.81 $Y2=1.69
r229 9 50 20.4101 $w=1.5e-07 $l=7.5e-08 $layer=POLY_cond $X=5.185 $Y=1.69
+ $X2=5.26 $Y2=1.69
r230 9 10 153.83 $w=1.5e-07 $l=3e-07 $layer=POLY_cond $X=5.185 $Y=1.69 $X2=4.885
+ $Y2=1.69
r231 6 49 5.30422 $w=1.5e-07 $l=7.5e-08 $layer=POLY_cond $X=4.81 $Y=1.765
+ $X2=4.81 $Y2=1.69
r232 6 8 204.047 $w=1.5e-07 $l=6.35e-07 $layer=POLY_cond $X=4.81 $Y=1.765
+ $X2=4.81 $Y2=2.4
r233 4 49 20.4101 $w=1.5e-07 $l=7.5e-08 $layer=POLY_cond $X=4.735 $Y=1.69
+ $X2=4.81 $Y2=1.69
r234 4 5 205.106 $w=1.5e-07 $l=4e-07 $layer=POLY_cond $X=4.735 $Y=1.69 $X2=4.335
+ $Y2=1.69
r235 1 5 26.9307 $w=1.5e-07 $l=1.06066e-07 $layer=POLY_cond $X=4.26 $Y=1.765
+ $X2=4.335 $Y2=1.69
r236 1 3 204.047 $w=1.5e-07 $l=6.35e-07 $layer=POLY_cond $X=4.26 $Y=1.765
+ $X2=4.26 $Y2=2.4
.ends

.subckt PM_SKY130_FD_SC_HS__EBUFN_8%A 1 3 4 6 7 9 10 12 13 20
r50 20 21 0.533186 $w=4.52e-07 $l=5e-09 $layer=POLY_cond $X=10.055 $Y=1.492
+ $X2=10.06 $Y2=1.492
r51 18 20 26.1261 $w=4.52e-07 $l=2.45e-07 $layer=POLY_cond $X=9.81 $Y=1.492
+ $X2=10.055 $Y2=1.492
r52 18 19 145.28 $w=1.7e-07 $l=1.7e-07 $layer=licon1_POLY $count=1 $X=9.81
+ $Y=1.385 $X2=9.81 $Y2=1.385
r53 16 18 19.1947 $w=4.52e-07 $l=1.8e-07 $layer=POLY_cond $X=9.63 $Y=1.492
+ $X2=9.81 $Y2=1.492
r54 15 16 2.66593 $w=4.52e-07 $l=2.5e-08 $layer=POLY_cond $X=9.605 $Y=1.492
+ $X2=9.63 $Y2=1.492
r55 13 19 3.14303 $w=3.28e-07 $l=9e-08 $layer=LI1_cond $X=9.81 $Y=1.295 $X2=9.81
+ $Y2=1.385
r56 10 21 28.877 $w=1.5e-07 $l=2.72e-07 $layer=POLY_cond $X=10.06 $Y=1.22
+ $X2=10.06 $Y2=1.492
r57 10 12 154.24 $w=1.5e-07 $l=4.8e-07 $layer=POLY_cond $X=10.06 $Y=1.22
+ $X2=10.06 $Y2=0.74
r58 7 20 28.877 $w=1.5e-07 $l=2.73e-07 $layer=POLY_cond $X=10.055 $Y=1.765
+ $X2=10.055 $Y2=1.492
r59 7 9 204.047 $w=1.5e-07 $l=6.35e-07 $layer=POLY_cond $X=10.055 $Y=1.765
+ $X2=10.055 $Y2=2.4
r60 4 16 28.877 $w=1.5e-07 $l=2.72e-07 $layer=POLY_cond $X=9.63 $Y=1.22 $X2=9.63
+ $Y2=1.492
r61 4 6 154.24 $w=1.5e-07 $l=4.8e-07 $layer=POLY_cond $X=9.63 $Y=1.22 $X2=9.63
+ $Y2=0.74
r62 1 15 28.877 $w=1.5e-07 $l=2.73e-07 $layer=POLY_cond $X=9.605 $Y=1.765
+ $X2=9.605 $Y2=1.492
r63 1 3 204.047 $w=1.5e-07 $l=6.35e-07 $layer=POLY_cond $X=9.605 $Y=1.765
+ $X2=9.605 $Y2=2.4
.ends

.subckt PM_SKY130_FD_SC_HS__EBUFN_8%A_28_368# 1 2 3 4 5 6 7 8 9 30 34 35 38 40
+ 44 46 50 52 54 55 56 60 64 66 68 69 70 74 76 79 82
r138 82 85 4.36531 $w=3.28e-07 $l=1.25e-07 $layer=LI1_cond $X=8.105 $Y=2.645
+ $X2=8.105 $Y2=2.77
r139 79 80 5.93683 $w=3.28e-07 $l=1.7e-07 $layer=LI1_cond $X=7.035 $Y=2.475
+ $X2=7.035 $Y2=2.645
r140 67 80 4.62375 $w=1.7e-07 $l=1.65e-07 $layer=LI1_cond $X=7.2 $Y=2.645
+ $X2=7.035 $Y2=2.645
r141 66 82 4.62375 $w=1.7e-07 $l=1.65e-07 $layer=LI1_cond $X=7.94 $Y=2.645
+ $X2=8.105 $Y2=2.645
r142 66 67 48.2781 $w=1.68e-07 $l=7.4e-07 $layer=LI1_cond $X=7.94 $Y=2.645
+ $X2=7.2 $Y2=2.645
r143 65 76 8.61065 $w=1.7e-07 $l=1.65e-07 $layer=LI1_cond $X=6.2 $Y=2.475
+ $X2=6.035 $Y2=2.475
r144 64 79 4.62375 $w=1.7e-07 $l=1.65e-07 $layer=LI1_cond $X=6.87 $Y=2.475
+ $X2=7.035 $Y2=2.475
r145 64 65 43.7112 $w=1.68e-07 $l=6.7e-07 $layer=LI1_cond $X=6.87 $Y=2.475
+ $X2=6.2 $Y2=2.475
r146 61 74 8.61065 $w=1.7e-07 $l=1.65e-07 $layer=LI1_cond $X=5.2 $Y=2.475
+ $X2=5.035 $Y2=2.475
r147 60 76 8.61065 $w=1.7e-07 $l=1.65e-07 $layer=LI1_cond $X=5.87 $Y=2.475
+ $X2=6.035 $Y2=2.475
r148 60 61 43.7112 $w=1.68e-07 $l=6.7e-07 $layer=LI1_cond $X=5.87 $Y=2.475
+ $X2=5.2 $Y2=2.475
r149 57 72 5.12568 $w=1.7e-07 $l=1.65e-07 $layer=LI1_cond $X=4.2 $Y=2.475
+ $X2=4.035 $Y2=2.475
r150 56 74 8.61065 $w=1.7e-07 $l=1.65e-07 $layer=LI1_cond $X=4.87 $Y=2.475
+ $X2=5.035 $Y2=2.475
r151 56 57 43.7112 $w=1.68e-07 $l=6.7e-07 $layer=LI1_cond $X=4.87 $Y=2.475
+ $X2=4.2 $Y2=2.475
r152 54 72 2.6405 $w=3.3e-07 $l=8.5e-08 $layer=LI1_cond $X=4.035 $Y=2.56
+ $X2=4.035 $Y2=2.475
r153 54 55 12.0483 $w=3.28e-07 $l=3.45e-07 $layer=LI1_cond $X=4.035 $Y=2.56
+ $X2=4.035 $Y2=2.905
r154 53 70 7.44763 $w=1.7e-07 $l=1.35e-07 $layer=LI1_cond $X=3.19 $Y=2.99
+ $X2=3.055 $Y2=2.99
r155 52 55 7.76618 $w=1.7e-07 $l=2.03101e-07 $layer=LI1_cond $X=3.87 $Y=2.99
+ $X2=4.035 $Y2=2.905
r156 52 53 44.3636 $w=1.68e-07 $l=6.8e-07 $layer=LI1_cond $X=3.87 $Y=2.99
+ $X2=3.19 $Y2=2.99
r157 48 70 0.256868 $w=2.7e-07 $l=8.5e-08 $layer=LI1_cond $X=3.055 $Y=2.905
+ $X2=3.055 $Y2=2.99
r158 48 50 24.7562 $w=2.68e-07 $l=5.8e-07 $layer=LI1_cond $X=3.055 $Y=2.905
+ $X2=3.055 $Y2=2.325
r159 47 69 5.16603 $w=1.7e-07 $l=8.5e-08 $layer=LI1_cond $X=2.22 $Y=2.99
+ $X2=2.135 $Y2=2.99
r160 46 70 7.44763 $w=1.7e-07 $l=1.35e-07 $layer=LI1_cond $X=2.92 $Y=2.99
+ $X2=3.055 $Y2=2.99
r161 46 47 45.6684 $w=1.68e-07 $l=7e-07 $layer=LI1_cond $X=2.92 $Y=2.99 $X2=2.22
+ $Y2=2.99
r162 42 69 1.34256 $w=1.7e-07 $l=8.5e-08 $layer=LI1_cond $X=2.135 $Y=2.905
+ $X2=2.135 $Y2=2.99
r163 42 44 37.8396 $w=1.68e-07 $l=5.8e-07 $layer=LI1_cond $X=2.135 $Y=2.905
+ $X2=2.135 $Y2=2.325
r164 41 68 7.34436 $w=1.7e-07 $l=1.33e-07 $layer=LI1_cond $X=1.35 $Y=2.99
+ $X2=1.217 $Y2=2.99
r165 40 69 5.16603 $w=1.7e-07 $l=8.5e-08 $layer=LI1_cond $X=2.05 $Y=2.99
+ $X2=2.135 $Y2=2.99
r166 40 41 45.6684 $w=1.68e-07 $l=7e-07 $layer=LI1_cond $X=2.05 $Y=2.99 $X2=1.35
+ $Y2=2.99
r167 36 68 0.195364 $w=2.65e-07 $l=8.5e-08 $layer=LI1_cond $X=1.217 $Y=2.905
+ $X2=1.217 $Y2=2.99
r168 36 38 25.2233 $w=2.63e-07 $l=5.8e-07 $layer=LI1_cond $X=1.217 $Y=2.905
+ $X2=1.217 $Y2=2.325
r169 34 68 7.34436 $w=1.7e-07 $l=1.32e-07 $layer=LI1_cond $X=1.085 $Y=2.99
+ $X2=1.217 $Y2=2.99
r170 34 35 46.6471 $w=1.68e-07 $l=7.15e-07 $layer=LI1_cond $X=1.085 $Y=2.99
+ $X2=0.37 $Y2=2.99
r171 30 33 38.2611 $w=2.48e-07 $l=8.3e-07 $layer=LI1_cond $X=0.245 $Y=1.985
+ $X2=0.245 $Y2=2.815
r172 28 35 7.14316 $w=1.7e-07 $l=1.62019e-07 $layer=LI1_cond $X=0.245 $Y=2.905
+ $X2=0.37 $Y2=2.99
r173 28 33 4.14879 $w=2.48e-07 $l=9e-08 $layer=LI1_cond $X=0.245 $Y=2.905
+ $X2=0.245 $Y2=2.815
r174 9 85 600 $w=1.7e-07 $l=1.0022e-06 $layer=licon1_PDIFF $count=1 $X=7.955
+ $Y=1.84 $X2=8.105 $Y2=2.77
r175 8 79 300 $w=1.7e-07 $l=7.06028e-07 $layer=licon1_PDIFF $count=2 $X=6.885
+ $Y=1.84 $X2=7.035 $Y2=2.475
r176 7 76 300 $w=1.7e-07 $l=7.06028e-07 $layer=licon1_PDIFF $count=2 $X=5.885
+ $Y=1.84 $X2=6.035 $Y2=2.475
r177 6 74 300 $w=1.7e-07 $l=7.06028e-07 $layer=licon1_PDIFF $count=2 $X=4.885
+ $Y=1.84 $X2=5.035 $Y2=2.475
r178 5 72 300 $w=1.7e-07 $l=7.12741e-07 $layer=licon1_PDIFF $count=2 $X=3.87
+ $Y=1.84 $X2=4.035 $Y2=2.475
r179 4 50 300 $w=1.7e-07 $l=5.7639e-07 $layer=licon1_PDIFF $count=2 $X=2.885
+ $Y=1.84 $X2=3.085 $Y2=2.325
r180 3 44 300 $w=1.7e-07 $l=5.54955e-07 $layer=licon1_PDIFF $count=2 $X=1.985
+ $Y=1.84 $X2=2.135 $Y2=2.325
r181 2 38 300 $w=1.7e-07 $l=5.54955e-07 $layer=licon1_PDIFF $count=2 $X=1.035
+ $Y=1.84 $X2=1.185 $Y2=2.325
r182 1 33 400 $w=1.7e-07 $l=1.04499e-06 $layer=licon1_PDIFF $count=1 $X=0.14
+ $Y=1.84 $X2=0.285 $Y2=2.815
r183 1 30 400 $w=1.7e-07 $l=2.05061e-07 $layer=licon1_PDIFF $count=1 $X=0.14
+ $Y=1.84 $X2=0.285 $Y2=1.985
.ends

.subckt PM_SKY130_FD_SC_HS__EBUFN_8%Z 1 2 3 4 5 6 7 8 27 29 31 35 39 41 43 47 51
+ 53 55 57 59 63 67 68 70 72 73 76 77 78 85 89
c133 57 0 1.85036e-19 $X=3.535 $Y=1.99
c134 55 0 5.58653e-20 $X=3.43 $Y=1.065
r135 83 89 1.92074 $w=3.28e-07 $l=5.5e-08 $layer=LI1_cond $X=0.71 $Y=0.98
+ $X2=0.71 $Y2=0.925
r136 77 78 14.7036 $w=2.88e-07 $l=3.7e-07 $layer=LI1_cond $X=0.69 $Y=1.295
+ $X2=0.69 $Y2=1.665
r137 77 90 5.76222 $w=2.88e-07 $l=1.45e-07 $layer=LI1_cond $X=0.69 $Y=1.295
+ $X2=0.69 $Y2=1.15
r138 76 83 3.05675 $w=3.1e-07 $l=8.5e-08 $layer=LI1_cond $X=0.71 $Y=1.065
+ $X2=0.71 $Y2=0.98
r139 76 90 3.05675 $w=3.1e-07 $l=9.44722e-08 $layer=LI1_cond $X=0.71 $Y=1.065
+ $X2=0.69 $Y2=1.15
r140 76 89 0.523838 $w=3.28e-07 $l=1.5e-08 $layer=LI1_cond $X=0.71 $Y=0.91
+ $X2=0.71 $Y2=0.925
r141 76 85 5.23838 $w=3.28e-07 $l=1.5e-07 $layer=LI1_cond $X=0.71 $Y=0.91
+ $X2=0.71 $Y2=0.76
r142 65 78 6.15961 $w=2.88e-07 $l=1.55e-07 $layer=LI1_cond $X=0.69 $Y=1.82
+ $X2=0.69 $Y2=1.665
r143 65 67 2.94878 $w=3.22e-07 $l=9.97246e-08 $layer=LI1_cond $X=0.69 $Y=1.82
+ $X2=0.722 $Y2=1.905
r144 61 63 7.68295 $w=3.28e-07 $l=2.2e-07 $layer=LI1_cond $X=3.595 $Y=0.98
+ $X2=3.595 $Y2=0.76
r145 57 75 2.6405 $w=3.3e-07 $l=8.5e-08 $layer=LI1_cond $X=3.535 $Y=1.99
+ $X2=3.535 $Y2=1.905
r146 57 59 23.0489 $w=3.28e-07 $l=6.6e-07 $layer=LI1_cond $X=3.535 $Y=1.99
+ $X2=3.535 $Y2=2.65
r147 56 73 8.61065 $w=1.7e-07 $l=1.65e-07 $layer=LI1_cond $X=2.76 $Y=1.065
+ $X2=2.595 $Y2=1.065
r148 55 61 7.76618 $w=1.7e-07 $l=2.03101e-07 $layer=LI1_cond $X=3.43 $Y=1.065
+ $X2=3.595 $Y2=0.98
r149 55 56 43.7112 $w=1.68e-07 $l=6.7e-07 $layer=LI1_cond $X=3.43 $Y=1.065
+ $X2=2.76 $Y2=1.065
r150 54 72 8.61065 $w=1.7e-07 $l=1.65e-07 $layer=LI1_cond $X=2.75 $Y=1.905
+ $X2=2.585 $Y2=1.905
r151 53 75 5.12568 $w=1.7e-07 $l=1.65e-07 $layer=LI1_cond $X=3.37 $Y=1.905
+ $X2=3.535 $Y2=1.905
r152 53 54 40.4492 $w=1.68e-07 $l=6.2e-07 $layer=LI1_cond $X=3.37 $Y=1.905
+ $X2=2.75 $Y2=1.905
r153 49 73 0.89609 $w=3.3e-07 $l=8.5e-08 $layer=LI1_cond $X=2.595 $Y=0.98
+ $X2=2.595 $Y2=1.065
r154 49 51 7.68295 $w=3.28e-07 $l=2.2e-07 $layer=LI1_cond $X=2.595 $Y=0.98
+ $X2=2.595 $Y2=0.76
r155 45 72 0.89609 $w=3.3e-07 $l=8.5e-08 $layer=LI1_cond $X=2.585 $Y=1.99
+ $X2=2.585 $Y2=1.905
r156 45 47 23.0489 $w=3.28e-07 $l=6.6e-07 $layer=LI1_cond $X=2.585 $Y=1.99
+ $X2=2.585 $Y2=2.65
r157 44 70 8.61065 $w=1.7e-07 $l=1.65e-07 $layer=LI1_cond $X=1.85 $Y=1.905
+ $X2=1.685 $Y2=1.905
r158 43 72 8.61065 $w=1.7e-07 $l=1.65e-07 $layer=LI1_cond $X=2.42 $Y=1.905
+ $X2=2.585 $Y2=1.905
r159 43 44 37.1872 $w=1.68e-07 $l=5.7e-07 $layer=LI1_cond $X=2.42 $Y=1.905
+ $X2=1.85 $Y2=1.905
r160 42 68 8.61065 $w=1.7e-07 $l=1.65e-07 $layer=LI1_cond $X=1.76 $Y=1.065
+ $X2=1.595 $Y2=1.065
r161 41 73 8.61065 $w=1.7e-07 $l=1.65e-07 $layer=LI1_cond $X=2.43 $Y=1.065
+ $X2=2.595 $Y2=1.065
r162 41 42 43.7112 $w=1.68e-07 $l=6.7e-07 $layer=LI1_cond $X=2.43 $Y=1.065
+ $X2=1.76 $Y2=1.065
r163 37 70 0.89609 $w=3.3e-07 $l=8.5e-08 $layer=LI1_cond $X=1.685 $Y=1.99
+ $X2=1.685 $Y2=1.905
r164 37 39 23.0489 $w=3.28e-07 $l=6.6e-07 $layer=LI1_cond $X=1.685 $Y=1.99
+ $X2=1.685 $Y2=2.65
r165 33 68 0.89609 $w=3.3e-07 $l=8.5e-08 $layer=LI1_cond $X=1.595 $Y=0.98
+ $X2=1.595 $Y2=1.065
r166 33 35 7.68295 $w=3.28e-07 $l=2.2e-07 $layer=LI1_cond $X=1.595 $Y=0.98
+ $X2=1.595 $Y2=0.76
r167 32 67 3.72223 $w=1.7e-07 $l=1.78e-07 $layer=LI1_cond $X=0.9 $Y=1.905
+ $X2=0.722 $Y2=1.905
r168 31 70 8.61065 $w=1.7e-07 $l=1.65e-07 $layer=LI1_cond $X=1.52 $Y=1.905
+ $X2=1.685 $Y2=1.905
r169 31 32 40.4492 $w=1.68e-07 $l=6.2e-07 $layer=LI1_cond $X=1.52 $Y=1.905
+ $X2=0.9 $Y2=1.905
r170 30 76 3.57226 $w=1.7e-07 $l=1.65e-07 $layer=LI1_cond $X=0.875 $Y=1.065
+ $X2=0.71 $Y2=1.065
r171 29 68 8.61065 $w=1.7e-07 $l=1.65e-07 $layer=LI1_cond $X=1.43 $Y=1.065
+ $X2=1.595 $Y2=1.065
r172 29 30 36.2086 $w=1.68e-07 $l=5.55e-07 $layer=LI1_cond $X=1.43 $Y=1.065
+ $X2=0.875 $Y2=1.065
r173 25 67 2.94878 $w=3.22e-07 $l=8.5e-08 $layer=LI1_cond $X=0.722 $Y=1.99
+ $X2=0.722 $Y2=1.905
r174 25 27 21.4257 $w=3.53e-07 $l=6.6e-07 $layer=LI1_cond $X=0.722 $Y=1.99
+ $X2=0.722 $Y2=2.65
r175 8 75 400 $w=1.7e-07 $l=2.04939e-07 $layer=licon1_PDIFF $count=1 $X=3.385
+ $Y=1.84 $X2=3.535 $Y2=1.97
r176 8 59 400 $w=1.7e-07 $l=8.81816e-07 $layer=licon1_PDIFF $count=1 $X=3.385
+ $Y=1.84 $X2=3.535 $Y2=2.65
r177 7 72 400 $w=1.7e-07 $l=2.04939e-07 $layer=licon1_PDIFF $count=1 $X=2.435
+ $Y=1.84 $X2=2.585 $Y2=1.97
r178 7 47 400 $w=1.7e-07 $l=8.81816e-07 $layer=licon1_PDIFF $count=1 $X=2.435
+ $Y=1.84 $X2=2.585 $Y2=2.65
r179 6 70 400 $w=1.7e-07 $l=2.56905e-07 $layer=licon1_PDIFF $count=1 $X=1.485
+ $Y=1.84 $X2=1.685 $Y2=1.97