* File: sky130_fd_sc_hs__dfxtp_4.pex.spice
* Created: Tue Sep  1 20:01:09 2020
* Program "Calibre xRC"
* Version "v2018.4_34.26"
* Nominal Temperature: 27C
* Circuit Temperature: 27C
* 
.subckt PM_SKY130_FD_SC_HS__DFXTP_4%CLK 3 5 7 8 12
c33 5 0 1.5421e-19 $X=0.505 $Y=1.765
r34 11 12 145.28 $w=1.7e-07 $l=1.7e-07 $layer=licon1_POLY $count=1 $X=0.34
+ $Y=1.465 $X2=0.34 $Y2=1.465
r35 8 12 6.06549 $w=3.78e-07 $l=2e-07 $layer=LI1_cond $X=0.315 $Y=1.665
+ $X2=0.315 $Y2=1.465
r36 5 11 57.3754 $w=3.5e-07 $l=3.54965e-07 $layer=POLY_cond $X=0.505 $Y=1.765
+ $X2=0.385 $Y2=1.465
r37 5 7 204.047 $w=1.5e-07 $l=6.35e-07 $layer=POLY_cond $X=0.505 $Y=1.765
+ $X2=0.505 $Y2=2.4
r38 1 11 38.7839 $w=3.5e-07 $l=2.13014e-07 $layer=POLY_cond $X=0.495 $Y=1.3
+ $X2=0.385 $Y2=1.465
r39 1 3 287.149 $w=1.5e-07 $l=5.6e-07 $layer=POLY_cond $X=0.495 $Y=1.3 $X2=0.495
+ $Y2=0.74
.ends

.subckt PM_SKY130_FD_SC_HS__DFXTP_4%A_27_74# 1 2 7 9 10 12 15 19 20 22 23 25 26
+ 31 32 33 37 39 41 43 44 45 48 51 52 54 55 56 58 59 60 61 64 67 69 70 73 75 78
+ 79 86 87 88 92
c270 86 0 6.73668e-20 $X=5.83 $Y=0.345
c271 70 0 1.76602e-19 $X=4.51 $Y=0.775
c272 61 0 8.69771e-20 $X=3.705 $Y=1.915
c273 26 0 1.11025e-19 $X=5.74 $Y=1.765
c274 23 0 2.34929e-19 $X=5.095 $Y=2.045
c275 7 0 6.61465e-20 $X=0.955 $Y=1.765
r276 87 96 46.2115 $w=3.3e-07 $l=1.65e-07 $layer=POLY_cond $X=5.83 $Y=0.345
+ $X2=5.83 $Y2=0.51
r277 86 88 8.74048 $w=2.53e-07 $l=1.65e-07 $layer=LI1_cond $X=5.83 $Y=0.382
+ $X2=5.665 $Y2=0.382
r278 86 87 145.28 $w=1.7e-07 $l=1.7e-07 $layer=licon1_POLY $count=1 $X=5.83
+ $Y=0.345 $X2=5.83 $Y2=0.345
r279 81 83 9.2801 $w=4.58e-07 $l=1.65e-07 $layer=LI1_cond $X=0.905 $Y=1.385
+ $X2=0.905 $Y2=1.55
r280 81 82 145.28 $w=1.7e-07 $l=1.7e-07 $layer=licon1_POLY $count=1 $X=0.97
+ $Y=1.385 $X2=0.97 $Y2=1.385
r281 78 81 8.84058 $w=4.58e-07 $l=3.4e-07 $layer=LI1_cond $X=0.905 $Y=1.045
+ $X2=0.905 $Y2=1.385
r282 78 79 7.19996 $w=4.58e-07 $l=8.5e-08 $layer=LI1_cond $X=0.905 $Y=1.045
+ $X2=0.905 $Y2=0.96
r283 75 88 64.262 $w=1.68e-07 $l=9.85e-07 $layer=LI1_cond $X=4.68 $Y=0.34
+ $X2=5.665 $Y2=0.34
r284 72 75 6.81649 $w=1.7e-07 $l=1.20208e-07 $layer=LI1_cond $X=4.595 $Y=0.425
+ $X2=4.68 $Y2=0.34
r285 72 73 17.2888 $w=1.68e-07 $l=2.65e-07 $layer=LI1_cond $X=4.595 $Y=0.425
+ $X2=4.595 $Y2=0.69
r286 71 84 1.34256 $w=1.7e-07 $l=8.5e-08 $layer=LI1_cond $X=3.875 $Y=0.775
+ $X2=3.79 $Y2=0.775
r287 70 73 6.81649 $w=1.7e-07 $l=1.20208e-07 $layer=LI1_cond $X=4.51 $Y=0.775
+ $X2=4.595 $Y2=0.69
r288 70 71 41.4278 $w=1.68e-07 $l=6.35e-07 $layer=LI1_cond $X=4.51 $Y=0.775
+ $X2=3.875 $Y2=0.775
r289 68 84 5.16603 $w=1.7e-07 $l=8.5e-08 $layer=LI1_cond $X=3.79 $Y=0.86
+ $X2=3.79 $Y2=0.775
r290 68 69 58.0642 $w=1.68e-07 $l=8.9e-07 $layer=LI1_cond $X=3.79 $Y=0.86
+ $X2=3.79 $Y2=1.75
r291 67 84 5.16603 $w=1.7e-07 $l=8.5e-08 $layer=LI1_cond $X=3.79 $Y=0.69
+ $X2=3.79 $Y2=0.775
r292 66 67 17.2888 $w=1.68e-07 $l=2.65e-07 $layer=LI1_cond $X=3.79 $Y=0.425
+ $X2=3.79 $Y2=0.69
r293 64 93 39.8861 $w=3.95e-07 $l=1.65e-07 $layer=POLY_cond $X=3.287 $Y=1.915
+ $X2=3.287 $Y2=2.08
r294 64 92 45.5639 $w=3.95e-07 $l=1.65e-07 $layer=POLY_cond $X=3.287 $Y=1.915
+ $X2=3.287 $Y2=1.75
r295 63 64 145.28 $w=1.7e-07 $l=1.7e-07 $layer=licon1_POLY $count=1 $X=3.32
+ $Y=1.915 $X2=3.32 $Y2=1.915
r296 61 69 7.76618 $w=3.3e-07 $l=2.03101e-07 $layer=LI1_cond $X=3.705 $Y=1.915
+ $X2=3.79 $Y2=1.75
r297 61 63 13.4452 $w=3.28e-07 $l=3.85e-07 $layer=LI1_cond $X=3.705 $Y=1.915
+ $X2=3.32 $Y2=1.915
r298 59 66 6.81649 $w=1.7e-07 $l=1.20208e-07 $layer=LI1_cond $X=3.705 $Y=0.34
+ $X2=3.79 $Y2=0.425
r299 59 60 68.5027 $w=1.68e-07 $l=1.05e-06 $layer=LI1_cond $X=3.705 $Y=0.34
+ $X2=2.655 $Y2=0.34
r300 57 60 6.81649 $w=1.7e-07 $l=1.20208e-07 $layer=LI1_cond $X=2.57 $Y=0.425
+ $X2=2.655 $Y2=0.34
r301 57 58 19.8984 $w=1.68e-07 $l=3.05e-07 $layer=LI1_cond $X=2.57 $Y=0.425
+ $X2=2.57 $Y2=0.73
r302 55 58 6.81649 $w=1.7e-07 $l=1.20208e-07 $layer=LI1_cond $X=2.485 $Y=0.815
+ $X2=2.57 $Y2=0.73
r303 55 56 43.7112 $w=1.68e-07 $l=6.7e-07 $layer=LI1_cond $X=2.485 $Y=0.815
+ $X2=1.815 $Y2=0.815
r304 54 56 6.81649 $w=1.7e-07 $l=1.20208e-07 $layer=LI1_cond $X=1.73 $Y=0.73
+ $X2=1.815 $Y2=0.815
r305 53 54 19.8984 $w=1.68e-07 $l=3.05e-07 $layer=LI1_cond $X=1.73 $Y=0.425
+ $X2=1.73 $Y2=0.73
r306 51 53 6.81649 $w=1.7e-07 $l=1.20208e-07 $layer=LI1_cond $X=1.645 $Y=0.34
+ $X2=1.73 $Y2=0.425
r307 51 52 33.2727 $w=1.68e-07 $l=5.1e-07 $layer=LI1_cond $X=1.645 $Y=0.34
+ $X2=1.135 $Y2=0.34
r308 49 52 6.81649 $w=1.7e-07 $l=1.20208e-07 $layer=LI1_cond $X=1.05 $Y=0.425
+ $X2=1.135 $Y2=0.34
r309 49 79 34.9037 $w=1.68e-07 $l=5.35e-07 $layer=LI1_cond $X=1.05 $Y=0.425
+ $X2=1.05 $Y2=0.96
r310 48 83 26.0963 $w=1.68e-07 $l=4e-07 $layer=LI1_cond $X=0.76 $Y=1.95 $X2=0.76
+ $Y2=1.55
r311 46 77 5.12568 $w=1.7e-07 $l=1.65e-07 $layer=LI1_cond $X=0.445 $Y=2.035
+ $X2=0.28 $Y2=2.035
r312 45 48 6.81649 $w=1.7e-07 $l=1.20208e-07 $layer=LI1_cond $X=0.675 $Y=2.035
+ $X2=0.76 $Y2=1.95
r313 45 46 15.0053 $w=1.68e-07 $l=2.3e-07 $layer=LI1_cond $X=0.675 $Y=2.035
+ $X2=0.445 $Y2=2.035
r314 43 78 6.6364 $w=1.7e-07 $l=2.3e-07 $layer=LI1_cond $X=0.675 $Y=1.045
+ $X2=0.905 $Y2=1.045
r315 43 44 15.0053 $w=1.68e-07 $l=2.3e-07 $layer=LI1_cond $X=0.675 $Y=1.045
+ $X2=0.445 $Y2=1.045
r316 39 77 2.6405 $w=3.3e-07 $l=8.5e-08 $layer=LI1_cond $X=0.28 $Y=2.12 $X2=0.28
+ $Y2=2.035
r317 39 41 24.2711 $w=3.28e-07 $l=6.95e-07 $layer=LI1_cond $X=0.28 $Y=2.12
+ $X2=0.28 $Y2=2.815
r318 35 44 7.76618 $w=1.7e-07 $l=2.03101e-07 $layer=LI1_cond $X=0.28 $Y=0.96
+ $X2=0.445 $Y2=1.045
r319 35 37 15.5405 $w=3.28e-07 $l=4.45e-07 $layer=LI1_cond $X=0.28 $Y=0.96
+ $X2=0.28 $Y2=0.515
r320 33 92 261.511 $w=1.5e-07 $l=5.1e-07 $layer=POLY_cond $X=3.165 $Y=1.24
+ $X2=3.165 $Y2=1.75
r321 32 33 53.9552 $w=1.9e-07 $l=1.5e-07 $layer=POLY_cond $X=3.145 $Y=1.09
+ $X2=3.145 $Y2=1.24
r322 31 96 164.085 $w=1.5e-07 $l=3.2e-07 $layer=POLY_cond $X=5.815 $Y=0.83
+ $X2=5.815 $Y2=0.51
r323 29 31 440.979 $w=1.5e-07 $l=8.6e-07 $layer=POLY_cond $X=5.815 $Y=1.69
+ $X2=5.815 $Y2=0.83
r324 27 34 6.7465 $w=1.5e-07 $l=9e-08 $layer=POLY_cond $X=5.185 $Y=1.765
+ $X2=5.095 $Y2=1.765
r325 26 29 26.9307 $w=1.5e-07 $l=1.06066e-07 $layer=POLY_cond $X=5.74 $Y=1.765
+ $X2=5.815 $Y2=1.69
r326 26 27 284.585 $w=1.5e-07 $l=5.55e-07 $layer=POLY_cond $X=5.74 $Y=1.765
+ $X2=5.185 $Y2=1.765
r327 23 34 77.5092 $w=1.77e-07 $l=2.8e-07 $layer=POLY_cond $X=5.095 $Y=2.045
+ $X2=5.095 $Y2=1.765
r328 23 25 159.06 $w=1.5e-07 $l=4.95e-07 $layer=POLY_cond $X=5.095 $Y=2.045
+ $X2=5.095 $Y2=2.54
r329 20 22 91.58 $w=1.5e-07 $l=2.85e-07 $layer=POLY_cond $X=3.18 $Y=2.44
+ $X2=3.18 $Y2=2.725
r330 19 20 36.0588 $w=1.8e-07 $l=9e-08 $layer=POLY_cond $X=3.18 $Y=2.35 $X2=3.18
+ $Y2=2.44
r331 19 93 104.952 $w=1.8e-07 $l=2.7e-07 $layer=POLY_cond $X=3.18 $Y=2.35
+ $X2=3.18 $Y2=2.08
r332 15 32 91.58 $w=1.5e-07 $l=2.85e-07 $layer=POLY_cond $X=3.125 $Y=0.805
+ $X2=3.125 $Y2=1.09
r333 10 82 38.5336 $w=3.07e-07 $l=2.16852e-07 $layer=POLY_cond $X=1.12 $Y=1.22
+ $X2=1 $Y2=1.385
r334 10 12 154.24 $w=1.5e-07 $l=4.8e-07 $layer=POLY_cond $X=1.12 $Y=1.22
+ $X2=1.12 $Y2=0.74
r335 7 82 72.2893 $w=3.07e-07 $l=4.01871e-07 $layer=POLY_cond $X=0.955 $Y=1.765
+ $X2=1 $Y2=1.385
r336 7 9 204.047 $w=1.5e-07 $l=6.35e-07 $layer=POLY_cond $X=0.955 $Y=1.765
+ $X2=0.955 $Y2=2.4
r337 2 77 400 $w=1.7e-07 $l=3.39853e-07 $layer=licon1_PDIFF $count=1 $X=0.135
+ $Y=1.84 $X2=0.28 $Y2=2.115
r338 2 41 400 $w=1.7e-07 $l=1.04499e-06 $layer=licon1_PDIFF $count=1 $X=0.135
+ $Y=1.84 $X2=0.28 $Y2=2.815
r339 1 37 91 $w=1.7e-07 $l=2.05061e-07 $layer=licon1_NDIFF $count=2 $X=0.135
+ $Y=0.37 $X2=0.28 $Y2=0.515
.ends

.subckt PM_SKY130_FD_SC_HS__DFXTP_4%D 1 3 4 6 8 12 14 16 17 22 34
c61 34 0 1.17955e-19 $X=2.16 $Y=1.665
c62 12 0 1.59273e-19 $X=1.95 $Y=2.19
c63 6 0 1.63132e-19 $X=2.695 $Y=1.125
c64 4 0 1.82072e-19 $X=2.62 $Y=1.2
r65 28 34 2.0808 $w=3.58e-07 $l=6.5e-08 $layer=LI1_cond $X=2.125 $Y=1.6
+ $X2=2.125 $Y2=1.665
r66 22 25 15.7375 $w=3.3e-07 $l=9e-08 $layer=POLY_cond $X=2.14 $Y=1.2 $X2=2.14
+ $Y2=1.29
r67 17 36 6.59029 $w=3.58e-07 $l=1.05e-07 $layer=LI1_cond $X=2.125 $Y=1.675
+ $X2=2.125 $Y2=1.78
r68 17 34 0.320123 $w=3.58e-07 $l=1e-08 $layer=LI1_cond $X=2.125 $Y=1.675
+ $X2=2.125 $Y2=1.665
r69 17 28 0.320123 $w=3.58e-07 $l=1e-08 $layer=LI1_cond $X=2.125 $Y=1.59
+ $X2=2.125 $Y2=1.6
r70 16 17 9.60369 $w=3.58e-07 $l=3e-07 $layer=LI1_cond $X=2.125 $Y=1.29
+ $X2=2.125 $Y2=1.59
r71 16 25 145.28 $w=1.7e-07 $l=1.7e-07 $layer=licon1_POLY $count=1 $X=2.14
+ $Y=1.29 $X2=2.14 $Y2=1.29
r72 14 36 15.984 $w=1.68e-07 $l=2.45e-07 $layer=LI1_cond $X=2.03 $Y=2.025
+ $X2=2.03 $Y2=1.78
r73 12 14 8.46218 $w=3.28e-07 $l=1.65e-07 $layer=LI1_cond $X=1.95 $Y=2.19
+ $X2=1.95 $Y2=2.025
r74 12 13 145.28 $w=1.7e-07 $l=1.7e-07 $layer=licon1_POLY $count=1 $X=1.95
+ $Y=2.19 $X2=1.95 $Y2=2.19
r75 6 8 102.827 $w=1.5e-07 $l=3.2e-07 $layer=POLY_cond $X=2.695 $Y=1.125
+ $X2=2.695 $Y2=0.805
r76 5 22 21.2229 $w=1.5e-07 $l=1.65e-07 $layer=POLY_cond $X=2.305 $Y=1.2
+ $X2=2.14 $Y2=1.2
r77 4 6 26.9307 $w=1.5e-07 $l=1.06066e-07 $layer=POLY_cond $X=2.62 $Y=1.2
+ $X2=2.695 $Y2=1.125
r78 4 5 161.521 $w=1.5e-07 $l=3.15e-07 $layer=POLY_cond $X=2.62 $Y=1.2 $X2=2.305
+ $Y2=1.2
r79 1 13 50.1894 $w=3.66e-07 $l=3.03315e-07 $layer=POLY_cond $X=2.11 $Y=2.44
+ $X2=1.992 $Y2=2.19
r80 1 3 91.58 $w=1.5e-07 $l=2.85e-07 $layer=POLY_cond $X=2.11 $Y=2.44 $X2=2.11
+ $Y2=2.725
.ends

.subckt PM_SKY130_FD_SC_HS__DFXTP_4%A_206_368# 1 2 8 9 10 11 14 15 17 20 22 24
+ 25 27 30 33 37 40 41 42 44 45 46 48 49 50 51 52 53 57 61 62 63 70 71 76 77
c242 76 0 3.86493e-19 $X=5.355 $Y=1.315
c243 61 0 1.5421e-19 $X=1.18 $Y=1.985
c244 48 0 1.33507e-19 $X=4.3 $Y=2.905
c245 45 0 4.53899e-20 $X=4.215 $Y=2.675
c246 37 0 6.61465e-20 $X=1.995 $Y=2.61
c247 22 0 9.7909e-20 $X=5.23 $Y=1.15
c248 14 0 1.59273e-19 $X=2.645 $Y=2.26
r249 76 80 21.8577 $w=3.3e-07 $l=1.25e-07 $layer=POLY_cond $X=5.355 $Y=1.315
+ $X2=5.23 $Y2=1.315
r250 75 76 145.28 $w=1.7e-07 $l=1.7e-07 $layer=licon1_POLY $count=1 $X=5.355
+ $Y=1.315 $X2=5.355 $Y2=1.315
r251 70 71 145.28 $w=1.7e-07 $l=1.7e-07 $layer=licon1_POLY $count=1 $X=1.6
+ $Y=1.385 $X2=1.6 $Y2=1.385
r252 67 70 7.33373 $w=3.28e-07 $l=2.1e-07 $layer=LI1_cond $X=1.39 $Y=1.385
+ $X2=1.6 $Y2=1.385
r253 63 65 5.33035 $w=4.58e-07 $l=2.05e-07 $layer=LI1_cond $X=1.245 $Y=2.61
+ $X2=1.245 $Y2=2.815
r254 61 62 9.2801 $w=4.58e-07 $l=1.65e-07 $layer=LI1_cond $X=1.245 $Y=1.985
+ $X2=1.245 $Y2=1.82
r255 57 58 145.28 $w=1.7e-07 $l=1.7e-07 $layer=licon1_POLY $count=1 $X=5.79
+ $Y=2.215 $X2=5.79 $Y2=2.215
r256 55 57 24.0965 $w=3.28e-07 $l=6.9e-07 $layer=LI1_cond $X=5.79 $Y=2.905
+ $X2=5.79 $Y2=2.215
r257 54 77 5.16603 $w=1.7e-07 $l=8.5e-08 $layer=LI1_cond $X=5.065 $Y=2.99
+ $X2=4.98 $Y2=2.99
r258 53 55 7.76618 $w=1.7e-07 $l=2.03101e-07 $layer=LI1_cond $X=5.625 $Y=2.99
+ $X2=5.79 $Y2=2.905
r259 53 54 36.5348 $w=1.68e-07 $l=5.6e-07 $layer=LI1_cond $X=5.625 $Y=2.99
+ $X2=5.065 $Y2=2.99
r260 52 77 1.34256 $w=1.7e-07 $l=8.5e-08 $layer=LI1_cond $X=4.98 $Y=2.905
+ $X2=4.98 $Y2=2.99
r261 51 75 15.9965 $w=2.86e-07 $l=4.62331e-07 $layer=LI1_cond $X=4.98 $Y=1.54
+ $X2=5.355 $Y2=1.345
r262 51 52 89.0535 $w=1.68e-07 $l=1.365e-06 $layer=LI1_cond $X=4.98 $Y=1.54
+ $X2=4.98 $Y2=2.905
r263 49 77 5.16603 $w=1.7e-07 $l=8.5e-08 $layer=LI1_cond $X=4.895 $Y=2.99
+ $X2=4.98 $Y2=2.99
r264 49 50 33.2727 $w=1.68e-07 $l=5.1e-07 $layer=LI1_cond $X=4.895 $Y=2.99
+ $X2=4.385 $Y2=2.99
r265 48 50 6.81649 $w=1.7e-07 $l=1.20208e-07 $layer=LI1_cond $X=4.3 $Y=2.905
+ $X2=4.385 $Y2=2.99
r266 47 48 9.45989 $w=1.68e-07 $l=1.45e-07 $layer=LI1_cond $X=4.3 $Y=2.76
+ $X2=4.3 $Y2=2.905
r267 45 47 6.81649 $w=1.7e-07 $l=1.20208e-07 $layer=LI1_cond $X=4.215 $Y=2.675
+ $X2=4.3 $Y2=2.76
r268 45 46 54.8021 $w=1.68e-07 $l=8.4e-07 $layer=LI1_cond $X=4.215 $Y=2.675
+ $X2=3.375 $Y2=2.675
r269 43 46 6.81649 $w=1.7e-07 $l=1.20208e-07 $layer=LI1_cond $X=3.29 $Y=2.76
+ $X2=3.375 $Y2=2.675
r270 43 44 9.45989 $w=1.68e-07 $l=1.45e-07 $layer=LI1_cond $X=3.29 $Y=2.76
+ $X2=3.29 $Y2=2.905
r271 41 44 6.81649 $w=1.7e-07 $l=1.20208e-07 $layer=LI1_cond $X=3.205 $Y=2.99
+ $X2=3.29 $Y2=2.905
r272 41 42 67.8503 $w=1.68e-07 $l=1.04e-06 $layer=LI1_cond $X=3.205 $Y=2.99
+ $X2=2.165 $Y2=2.99
r273 40 42 6.81649 $w=1.7e-07 $l=1.20208e-07 $layer=LI1_cond $X=2.08 $Y=2.905
+ $X2=2.165 $Y2=2.99
r274 39 40 13.7005 $w=1.68e-07 $l=2.1e-07 $layer=LI1_cond $X=2.08 $Y=2.695
+ $X2=2.08 $Y2=2.905
r275 38 63 6.6364 $w=1.7e-07 $l=2.3e-07 $layer=LI1_cond $X=1.475 $Y=2.61
+ $X2=1.245 $Y2=2.61
r276 37 39 6.81649 $w=1.7e-07 $l=1.20208e-07 $layer=LI1_cond $X=1.995 $Y=2.61
+ $X2=2.08 $Y2=2.695
r277 37 38 33.9251 $w=1.68e-07 $l=5.2e-07 $layer=LI1_cond $X=1.995 $Y=2.61
+ $X2=1.475 $Y2=2.61
r278 35 67 4.62375 $w=1.7e-07 $l=1.65e-07 $layer=LI1_cond $X=1.39 $Y=1.55
+ $X2=1.39 $Y2=1.385
r279 35 62 17.615 $w=1.68e-07 $l=2.7e-07 $layer=LI1_cond $X=1.39 $Y=1.55
+ $X2=1.39 $Y2=1.82
r280 31 67 4.62375 $w=1.7e-07 $l=1.65e-07 $layer=LI1_cond $X=1.39 $Y=1.22
+ $X2=1.39 $Y2=1.385
r281 31 33 23.4866 $w=1.68e-07 $l=3.6e-07 $layer=LI1_cond $X=1.39 $Y=1.22
+ $X2=1.39 $Y2=0.86
r282 30 63 2.21014 $w=4.58e-07 $l=8.5e-08 $layer=LI1_cond $X=1.245 $Y=2.525
+ $X2=1.245 $Y2=2.61
r283 29 61 1.69011 $w=4.58e-07 $l=6.5e-08 $layer=LI1_cond $X=1.245 $Y=2.05
+ $X2=1.245 $Y2=1.985
r284 29 30 12.3508 $w=4.58e-07 $l=4.75e-07 $layer=LI1_cond $X=1.245 $Y=2.05
+ $X2=1.245 $Y2=2.525
r285 25 58 50.1894 $w=3.66e-07 $l=3.02903e-07 $layer=POLY_cond $X=5.63 $Y=2.465
+ $X2=5.747 $Y2=2.215
r286 25 27 91.58 $w=1.5e-07 $l=2.85e-07 $layer=POLY_cond $X=5.63 $Y=2.465
+ $X2=5.63 $Y2=2.75
r287 22 80 21.2229 $w=1.5e-07 $l=1.65e-07 $layer=POLY_cond $X=5.23 $Y=1.15
+ $X2=5.23 $Y2=1.315
r288 22 24 123.713 $w=1.5e-07 $l=3.85e-07 $layer=POLY_cond $X=5.23 $Y=1.15
+ $X2=5.23 $Y2=0.765
r289 18 20 238.436 $w=1.5e-07 $l=4.65e-07 $layer=POLY_cond $X=3.6 $Y=0.255
+ $X2=3.6 $Y2=0.72
r290 15 17 91.58 $w=1.5e-07 $l=2.85e-07 $layer=POLY_cond $X=2.645 $Y=2.35
+ $X2=2.645 $Y2=2.635
r291 14 15 36.0588 $w=1.8e-07 $l=9e-08 $layer=POLY_cond $X=2.645 $Y=2.26
+ $X2=2.645 $Y2=2.35
r292 13 28 0.70609 $w=1.8e-07 $l=9e-08 $layer=POLY_cond $X=2.645 $Y=1.845
+ $X2=2.645 $Y2=1.755
r293 13 14 161.315 $w=1.8e-07 $l=4.15e-07 $layer=POLY_cond $X=2.645 $Y=1.845
+ $X2=2.645 $Y2=2.26
r294 12 71 68.7189 $w=2.49e-07 $l=4.29651e-07 $layer=POLY_cond $X=1.765 $Y=1.74
+ $X2=1.6 $Y2=1.385
r295 11 28 60.3792 $w=1.65e-07 $l=2.12368e-07 $layer=POLY_cond $X=2.44 $Y=1.74
+ $X2=2.645 $Y2=1.755
r296 11 12 346.117 $w=1.5e-07 $l=6.75e-07 $layer=POLY_cond $X=2.44 $Y=1.74
+ $X2=1.765 $Y2=1.74
r297 9 18 26.9307 $w=1.5e-07 $l=1.06066e-07 $layer=POLY_cond $X=3.525 $Y=0.18
+ $X2=3.6 $Y2=0.255
r298 9 10 902.468 $w=1.5e-07 $l=1.76e-06 $layer=POLY_cond $X=3.525 $Y=0.18
+ $X2=1.765 $Y2=0.18
r299 8 71 39.5011 $w=2.49e-07 $l=2.05122e-07 $layer=POLY_cond $X=1.69 $Y=1.22
+ $X2=1.6 $Y2=1.385
r300 7 10 26.9307 $w=1.5e-07 $l=1.06066e-07 $layer=POLY_cond $X=1.69 $Y=0.255
+ $X2=1.765 $Y2=0.18
r301 7 8 494.819 $w=1.5e-07 $l=9.65e-07 $layer=POLY_cond $X=1.69 $Y=0.255
+ $X2=1.69 $Y2=1.22
r302 2 65 400 $w=1.7e-07 $l=1.04732e-06 $layer=licon1_PDIFF $count=1 $X=1.03
+ $Y=1.84 $X2=1.18 $Y2=2.815
r303 2 61 400 $w=1.7e-07 $l=2.10357e-07 $layer=licon1_PDIFF $count=1 $X=1.03
+ $Y=1.84 $X2=1.18 $Y2=1.985
r304 1 33 182 $w=1.7e-07 $l=5.79353e-07 $layer=licon1_NDIFF $count=1 $X=1.195
+ $Y=0.37 $X2=1.39 $Y2=0.86
.ends

.subckt PM_SKY130_FD_SC_HS__DFXTP_4%A_696_458# 1 2 7 9 10 11 12 14 17 21 24 26
+ 28
c84 28 0 8.37878e-20 $X=4.64 $Y=2.46
c85 26 0 5.60321e-20 $X=4.64 $Y=1.37
c86 12 0 1.7945e-19 $X=3.96 $Y=1.04
r87 31 32 17.0325 $w=3.08e-07 $l=4.3e-07 $layer=LI1_cond $X=4.867 $Y=0.77
+ $X2=4.867 $Y2=1.2
r88 26 32 9.16445 $w=3.08e-07 $l=3.00198e-07 $layer=LI1_cond $X=4.64 $Y=1.37
+ $X2=4.867 $Y2=1.2
r89 26 28 71.1123 $w=1.68e-07 $l=1.09e-06 $layer=LI1_cond $X=4.64 $Y=1.37
+ $X2=4.64 $Y2=2.46
r90 23 24 145.28 $w=1.7e-07 $l=1.7e-07 $layer=licon1_POLY $count=1 $X=4.21
+ $Y=1.205 $X2=4.21 $Y2=1.205
r91 21 32 0.104369 $w=3.4e-07 $l=3.12e-07 $layer=LI1_cond $X=4.555 $Y=1.2
+ $X2=4.867 $Y2=1.2
r92 21 23 11.6939 $w=3.38e-07 $l=3.45e-07 $layer=LI1_cond $X=4.555 $Y=1.2
+ $X2=4.21 $Y2=1.2
r93 20 24 30.6007 $w=3.3e-07 $l=1.75e-07 $layer=POLY_cond $X=4.035 $Y=1.205
+ $X2=4.21 $Y2=1.205
r94 15 17 102.553 $w=1.5e-07 $l=2e-07 $layer=POLY_cond $X=3.57 $Y=2.365 $X2=3.77
+ $Y2=2.365
r95 12 20 40.7148 $w=2.25e-07 $l=1.98997e-07 $layer=POLY_cond $X=3.96 $Y=1.04
+ $X2=3.885 $Y2=1.205
r96 12 14 102.827 $w=1.5e-07 $l=3.2e-07 $layer=POLY_cond $X=3.96 $Y=1.04
+ $X2=3.96 $Y2=0.72
r97 11 17 2.83073 $w=1.5e-07 $l=7.5e-08 $layer=POLY_cond $X=3.77 $Y=2.29
+ $X2=3.77 $Y2=2.365
r98 10 20 51.4259 $w=2.25e-07 $l=2.66364e-07 $layer=POLY_cond $X=3.77 $Y=1.42
+ $X2=3.885 $Y2=1.205
r99 10 11 446.106 $w=1.5e-07 $l=8.7e-07 $layer=POLY_cond $X=3.77 $Y=1.42
+ $X2=3.77 $Y2=2.29
r100 7 15 2.83073 $w=1.5e-07 $l=7.5e-08 $layer=POLY_cond $X=3.57 $Y=2.44
+ $X2=3.57 $Y2=2.365
r101 7 9 91.58 $w=1.5e-07 $l=2.85e-07 $layer=POLY_cond $X=3.57 $Y=2.44 $X2=3.57
+ $Y2=2.725
r102 2 28 600 $w=1.7e-07 $l=4.08167e-07 $layer=licon1_PDIFF $count=1 $X=4.49
+ $Y=2.12 $X2=4.64 $Y2=2.46
r103 1 31 182 $w=1.7e-07 $l=4.7355e-07 $layer=licon1_NDIFF $count=1 $X=4.83
+ $Y=0.38 $X2=5.015 $Y2=0.77
.ends

.subckt PM_SKY130_FD_SC_HS__DFXTP_4%A_544_485# 1 2 7 9 11 14 17 19 20 21 22 25
+ 28 31 37 40
c110 37 0 1.7945e-19 $X=3.355 $Y=0.785
c111 25 0 3.15687e-19 $X=3.26 $Y=1.41
c112 17 0 1.76602e-19 $X=4.722 $Y=1.45
c113 7 0 8.69771e-20 $X=4.415 $Y=2.045
r114 40 41 37.7635 $w=3.51e-07 $l=2.75e-07 $layer=POLY_cond $X=4.415 $Y=1.837
+ $X2=4.69 $Y2=1.837
r115 34 37 3.31764 $w=3.28e-07 $l=9.5e-08 $layer=LI1_cond $X=3.26 $Y=0.785
+ $X2=3.355 $Y2=0.785
r116 31 33 13.9239 $w=2.76e-07 $l=3.15e-07 $layer=LI1_cond $X=2.87 $Y=2.335
+ $X2=2.87 $Y2=2.65
r117 29 40 26.7778 $w=3.51e-07 $l=1.95e-07 $layer=POLY_cond $X=4.22 $Y=1.837
+ $X2=4.415 $Y2=1.837
r118 28 29 145.28 $w=1.7e-07 $l=1.7e-07 $layer=licon1_POLY $count=1 $X=4.22
+ $Y=1.795 $X2=4.22 $Y2=1.795
r119 26 28 15.8897 $w=3.28e-07 $l=4.55e-07 $layer=LI1_cond $X=4.22 $Y=2.25
+ $X2=4.22 $Y2=1.795
r120 24 34 4.62375 $w=1.7e-07 $l=1.65e-07 $layer=LI1_cond $X=3.26 $Y=0.95
+ $X2=3.26 $Y2=0.785
r121 24 25 30.0107 $w=1.68e-07 $l=4.6e-07 $layer=LI1_cond $X=3.26 $Y=0.95
+ $X2=3.26 $Y2=1.41
r122 23 31 3.57235 $w=1.7e-07 $l=1.65e-07 $layer=LI1_cond $X=3.035 $Y=2.335
+ $X2=2.87 $Y2=2.335
r123 22 26 7.76618 $w=1.7e-07 $l=2.03101e-07 $layer=LI1_cond $X=4.055 $Y=2.335
+ $X2=4.22 $Y2=2.25
r124 22 23 66.5455 $w=1.68e-07 $l=1.02e-06 $layer=LI1_cond $X=4.055 $Y=2.335
+ $X2=3.035 $Y2=2.335
r125 20 25 6.81649 $w=1.7e-07 $l=1.20208e-07 $layer=LI1_cond $X=3.175 $Y=1.495
+ $X2=3.26 $Y2=1.41
r126 20 21 12.3957 $w=1.68e-07 $l=1.9e-07 $layer=LI1_cond $X=3.175 $Y=1.495
+ $X2=2.985 $Y2=1.495
r127 19 31 5.54508 $w=2.76e-07 $l=9.88686e-08 $layer=LI1_cond $X=2.9 $Y=2.25
+ $X2=2.87 $Y2=2.335
r128 18 21 6.81649 $w=1.7e-07 $l=1.20208e-07 $layer=LI1_cond $X=2.9 $Y=1.58
+ $X2=2.985 $Y2=1.495
r129 18 19 43.7112 $w=1.68e-07 $l=6.7e-07 $layer=LI1_cond $X=2.9 $Y=1.58 $X2=2.9
+ $Y2=2.25
r130 16 17 44.7709 $w=2.15e-07 $l=1.5e-07 $layer=POLY_cond $X=4.722 $Y=1.3
+ $X2=4.722 $Y2=1.45
r131 14 16 330.734 $w=1.5e-07 $l=6.45e-07 $layer=POLY_cond $X=4.755 $Y=0.655
+ $X2=4.755 $Y2=1.3
r132 11 41 22.6971 $w=1.5e-07 $l=2.07e-07 $layer=POLY_cond $X=4.69 $Y=1.63
+ $X2=4.69 $Y2=1.837
r133 11 17 92.2979 $w=1.5e-07 $l=1.8e-07 $layer=POLY_cond $X=4.69 $Y=1.63
+ $X2=4.69 $Y2=1.45
r134 7 40 22.6971 $w=1.5e-07 $l=2.08e-07 $layer=POLY_cond $X=4.415 $Y=2.045
+ $X2=4.415 $Y2=1.837
r135 7 9 159.06 $w=1.5e-07 $l=4.95e-07 $layer=POLY_cond $X=4.415 $Y=2.045
+ $X2=4.415 $Y2=2.54
r136 2 33 600 $w=1.7e-07 $l=2.90474e-07 $layer=licon1_PDIFF $count=1 $X=2.72
+ $Y=2.425 $X2=2.87 $Y2=2.65
r137 1 37 182 $w=1.7e-07 $l=2.56027e-07 $layer=licon1_NDIFF $count=1 $X=3.2
+ $Y=0.595 $X2=3.355 $Y2=0.785
.ends

.subckt PM_SKY130_FD_SC_HS__DFXTP_4%A_1226_296# 1 2 8 9 11 14 18 20 22 23 25 28
+ 30 32 35 39 41 43 44 48 50 52 55 56 61 65 66 83
c168 83 0 1.97011e-19 $X=9.08 $Y=1.532
c169 66 0 1.21137e-19 $X=6.295 $Y=1.645
c170 65 0 2.00281e-19 $X=6.295 $Y=1.645
c171 48 0 3.64416e-20 $X=6.985 $Y=2.265
c172 14 0 6.73668e-20 $X=6.28 $Y=0.83
r173 83 84 1.87792 $w=3.85e-07 $l=1.5e-08 $layer=POLY_cond $X=9.08 $Y=1.532
+ $X2=9.095 $Y2=1.532
r174 82 83 53.8338 $w=3.85e-07 $l=4.3e-07 $layer=POLY_cond $X=8.65 $Y=1.532
+ $X2=9.08 $Y2=1.532
r175 81 82 0.625974 $w=3.85e-07 $l=5e-09 $layer=POLY_cond $X=8.645 $Y=1.532
+ $X2=8.65 $Y2=1.532
r176 78 79 0.625974 $w=3.85e-07 $l=5e-09 $layer=POLY_cond $X=8.195 $Y=1.532
+ $X2=8.2 $Y2=1.532
r177 75 76 1.87792 $w=3.85e-07 $l=1.5e-08 $layer=POLY_cond $X=7.73 $Y=1.532
+ $X2=7.745 $Y2=1.532
r178 66 74 40.6903 $w=3.3e-07 $l=1.65e-07 $layer=POLY_cond $X=6.295 $Y=1.645
+ $X2=6.295 $Y2=1.81
r179 66 73 46.2115 $w=3.3e-07 $l=1.65e-07 $layer=POLY_cond $X=6.295 $Y=1.645
+ $X2=6.295 $Y2=1.48
r180 65 67 6.55034 $w=2.98e-07 $l=1.6e-07 $layer=LI1_cond $X=6.295 $Y=1.645
+ $X2=6.295 $Y2=1.805
r181 65 66 145.28 $w=1.7e-07 $l=1.7e-07 $layer=licon1_POLY $count=1 $X=6.295
+ $Y=1.645 $X2=6.295 $Y2=1.645
r182 62 81 18.1532 $w=3.85e-07 $l=1.45e-07 $layer=POLY_cond $X=8.5 $Y=1.532
+ $X2=8.645 $Y2=1.532
r183 62 79 37.5584 $w=3.85e-07 $l=3e-07 $layer=POLY_cond $X=8.5 $Y=1.532 $X2=8.2
+ $Y2=1.532
r184 61 62 96.8533 $w=1.7e-07 $l=2.55e-07 $layer=licon1_POLY $count=1 $X=8.5
+ $Y=1.465 $X2=8.5 $Y2=1.465
r185 59 78 46.9481 $w=3.85e-07 $l=3.75e-07 $layer=POLY_cond $X=7.82 $Y=1.532
+ $X2=8.195 $Y2=1.532
r186 59 76 9.38961 $w=3.85e-07 $l=7.5e-08 $layer=POLY_cond $X=7.82 $Y=1.532
+ $X2=7.745 $Y2=1.532
r187 58 61 23.7473 $w=3.28e-07 $l=6.8e-07 $layer=LI1_cond $X=7.82 $Y=1.465
+ $X2=8.5 $Y2=1.465
r188 58 59 96.8533 $w=1.7e-07 $l=2.55e-07 $layer=licon1_POLY $count=1 $X=7.82
+ $Y=1.465 $X2=7.82 $Y2=1.465
r189 56 69 3.46916 $w=3.3e-07 $l=2.94449e-07 $layer=LI1_cond $X=7.47 $Y=1.465
+ $X2=7.385 $Y2=1.72
r190 56 58 12.2229 $w=3.28e-07 $l=3.5e-07 $layer=LI1_cond $X=7.47 $Y=1.465
+ $X2=7.82 $Y2=1.465
r191 55 69 3.63555 $w=1.7e-07 $l=4.2e-07 $layer=LI1_cond $X=7.385 $Y=1.3
+ $X2=7.385 $Y2=1.72
r192 54 71 0.265075 $w=1.7e-07 $l=8.5e-08 $layer=LI1_cond $X=7.385 $Y=1.05
+ $X2=7.385 $Y2=0.965
r193 54 55 16.3102 $w=1.68e-07 $l=2.5e-07 $layer=LI1_cond $X=7.385 $Y=1.05
+ $X2=7.385 $Y2=1.3
r194 50 71 28.5696 $w=1.58e-07 $l=3.7e-07 $layer=LI1_cond $X=7.015 $Y=0.965
+ $X2=7.385 $Y2=0.965
r195 50 52 16.8257 $w=2.48e-07 $l=3.65e-07 $layer=LI1_cond $X=7.015 $Y=0.88
+ $X2=7.015 $Y2=0.515
r196 46 69 17.491 $w=2.79e-07 $l=4e-07 $layer=LI1_cond $X=6.985 $Y=1.72
+ $X2=7.385 $Y2=1.72
r197 46 48 13.0959 $w=3.28e-07 $l=3.75e-07 $layer=LI1_cond $X=6.985 $Y=1.89
+ $X2=6.985 $Y2=2.265
r198 45 67 4.02169 $w=1.7e-07 $l=1.65e-07 $layer=LI1_cond $X=6.46 $Y=1.805
+ $X2=6.295 $Y2=1.805
r199 44 46 9.06394 $w=2.79e-07 $l=2.03101e-07 $layer=LI1_cond $X=6.82 $Y=1.805
+ $X2=6.985 $Y2=1.72
r200 44 45 23.4866 $w=1.68e-07 $l=3.6e-07 $layer=LI1_cond $X=6.82 $Y=1.805
+ $X2=6.46 $Y2=1.805
r201 41 84 24.9301 $w=1.5e-07 $l=2.33e-07 $layer=POLY_cond $X=9.095 $Y=1.765
+ $X2=9.095 $Y2=1.532
r202 41 43 204.047 $w=1.5e-07 $l=6.35e-07 $layer=POLY_cond $X=9.095 $Y=1.765
+ $X2=9.095 $Y2=2.4
r203 37 83 24.9301 $w=1.5e-07 $l=2.32e-07 $layer=POLY_cond $X=9.08 $Y=1.3
+ $X2=9.08 $Y2=1.532
r204 37 39 287.149 $w=1.5e-07 $l=5.6e-07 $layer=POLY_cond $X=9.08 $Y=1.3
+ $X2=9.08 $Y2=0.74
r205 33 82 24.9301 $w=1.5e-07 $l=2.32e-07 $layer=POLY_cond $X=8.65 $Y=1.3
+ $X2=8.65 $Y2=1.532
r206 33 35 287.149 $w=1.5e-07 $l=5.6e-07 $layer=POLY_cond $X=8.65 $Y=1.3
+ $X2=8.65 $Y2=0.74
r207 30 81 24.9301 $w=1.5e-07 $l=2.33e-07 $layer=POLY_cond $X=8.645 $Y=1.765
+ $X2=8.645 $Y2=1.532
r208 30 32 204.047 $w=1.5e-07 $l=6.35e-07 $layer=POLY_cond $X=8.645 $Y=1.765
+ $X2=8.645 $Y2=2.4
r209 26 79 24.9301 $w=1.5e-07 $l=2.32e-07 $layer=POLY_cond $X=8.2 $Y=1.3 $X2=8.2
+ $Y2=1.532
r210 26 28 287.149 $w=1.5e-07 $l=5.6e-07 $layer=POLY_cond $X=8.2 $Y=1.3 $X2=8.2
+ $Y2=0.74
r211 23 78 24.9301 $w=1.5e-07 $l=2.33e-07 $layer=POLY_cond $X=8.195 $Y=1.765
+ $X2=8.195 $Y2=1.532
r212 23 25 204.047 $w=1.5e-07 $l=6.35e-07 $layer=POLY_cond $X=8.195 $Y=1.765
+ $X2=8.195 $Y2=2.4
r213 20 76 24.9301 $w=1.5e-07 $l=2.33e-07 $layer=POLY_cond $X=7.745 $Y=1.765
+ $X2=7.745 $Y2=1.532
r214 20 22 204.047 $w=1.5e-07 $l=6.35e-07 $layer=POLY_cond $X=7.745 $Y=1.765
+ $X2=7.745 $Y2=2.4
r215 16 75 24.9301 $w=1.5e-07 $l=2.32e-07 $layer=POLY_cond $X=7.73 $Y=1.3
+ $X2=7.73 $Y2=1.532
r216 16 18 287.149 $w=1.5e-07 $l=5.6e-07 $layer=POLY_cond $X=7.73 $Y=1.3
+ $X2=7.73 $Y2=0.74
r217 14 73 333.298 $w=1.5e-07 $l=6.5e-07 $layer=POLY_cond $X=6.28 $Y=0.83
+ $X2=6.28 $Y2=1.48
r218 9 11 91.58 $w=1.5e-07 $l=2.85e-07 $layer=POLY_cond $X=6.255 $Y=2.465
+ $X2=6.255 $Y2=2.75
r219 8 9 36.0588 $w=1.8e-07 $l=9e-08 $layer=POLY_cond $X=6.255 $Y=2.375
+ $X2=6.255 $Y2=2.465
r220 8 74 219.621 $w=1.8e-07 $l=5.65e-07 $layer=POLY_cond $X=6.255 $Y=2.375
+ $X2=6.255 $Y2=1.81
r221 2 48 300 $w=1.7e-07 $l=2.10357e-07 $layer=licon1_PDIFF $count=2 $X=6.835
+ $Y=2.12 $X2=6.985 $Y2=2.265
r222 1 52 91 $w=1.7e-07 $l=2.05061e-07 $layer=licon1_NDIFF $count=2 $X=6.91
+ $Y=0.37 $X2=7.055 $Y2=0.515
.ends

.subckt PM_SKY130_FD_SC_HS__DFXTP_4%A_1034_424# 1 2 7 9 11 12 13 14 16 17 19 25
+ 27 31 32 34 36 37 39 42
c106 42 0 8.92564e-20 $X=6.965 $Y=1.385
c107 39 0 9.7909e-20 $X=5.775 $Y=1.225
c108 37 0 1.97011e-19 $X=6.63 $Y=1.225
c109 32 0 1.79413e-19 $X=5.405 $Y=1.795
c110 31 0 2.44429e-19 $X=5.69 $Y=1.795
c111 11 0 3.64416e-20 $X=6.875 $Y=1.895
r112 42 43 16.814 $w=2.58e-07 $l=9e-08 $layer=POLY_cond $X=6.965 $Y=1.385
+ $X2=6.875 $Y2=1.385
r113 41 42 145.28 $w=1.7e-07 $l=1.7e-07 $layer=licon1_POLY $count=1 $X=6.965
+ $Y=1.385 $X2=6.965 $Y2=1.385
r114 38 39 1.34256 $w=1.7e-07 $l=8.5e-08 $layer=LI1_cond $X=5.86 $Y=1.225
+ $X2=5.775 $Y2=1.225
r115 37 41 15.8449 $w=3.02e-07 $l=3.90416e-07 $layer=LI1_cond $X=6.63 $Y=1.225
+ $X2=6.965 $Y2=1.345
r116 37 38 50.2353 $w=1.68e-07 $l=7.7e-07 $layer=LI1_cond $X=6.63 $Y=1.225
+ $X2=5.86 $Y2=1.225
r117 35 39 5.16603 $w=1.7e-07 $l=8.5e-08 $layer=LI1_cond $X=5.775 $Y=1.31
+ $X2=5.775 $Y2=1.225
r118 35 36 26.0963 $w=1.68e-07 $l=4e-07 $layer=LI1_cond $X=5.775 $Y=1.31
+ $X2=5.775 $Y2=1.71
r119 34 39 5.16603 $w=1.7e-07 $l=8.5e-08 $layer=LI1_cond $X=5.775 $Y=1.14
+ $X2=5.775 $Y2=1.225
r120 33 34 11.0909 $w=1.68e-07 $l=1.7e-07 $layer=LI1_cond $X=5.775 $Y=0.97
+ $X2=5.775 $Y2=1.14
r121 31 36 6.81649 $w=1.7e-07 $l=1.20208e-07 $layer=LI1_cond $X=5.69 $Y=1.795
+ $X2=5.775 $Y2=1.71
r122 31 32 18.5936 $w=1.68e-07 $l=2.85e-07 $layer=LI1_cond $X=5.69 $Y=1.795
+ $X2=5.405 $Y2=1.795
r123 27 33 7.14316 $w=2.5e-07 $l=1.62019e-07 $layer=LI1_cond $X=5.69 $Y=0.845
+ $X2=5.775 $Y2=0.97
r124 27 29 6.22319 $w=2.48e-07 $l=1.35e-07 $layer=LI1_cond $X=5.69 $Y=0.845
+ $X2=5.555 $Y2=0.845
r125 23 32 6.81649 $w=1.7e-07 $l=1.20208e-07 $layer=LI1_cond $X=5.32 $Y=1.88
+ $X2=5.405 $Y2=1.795
r126 23 25 37.8396 $w=1.68e-07 $l=5.8e-07 $layer=LI1_cond $X=5.32 $Y=1.88
+ $X2=5.32 $Y2=2.46
r127 20 22 58.9681 $w=1.5e-07 $l=1.15e-07 $layer=POLY_cond $X=6.76 $Y=1.97
+ $X2=6.875 $Y2=1.97
r128 17 42 56.9806 $w=2.58e-07 $l=3.78616e-07 $layer=POLY_cond $X=7.27 $Y=1.22
+ $X2=6.965 $Y2=1.385
r129 17 19 154.24 $w=1.5e-07 $l=4.8e-07 $layer=POLY_cond $X=7.27 $Y=1.22
+ $X2=7.27 $Y2=0.74
r130 14 16 159.06 $w=1.5e-07 $l=4.95e-07 $layer=POLY_cond $X=7.21 $Y=2.045
+ $X2=7.21 $Y2=2.54
r131 13 22 38.4574 $w=1.5e-07 $l=7.5e-08 $layer=POLY_cond $X=6.95 $Y=1.97
+ $X2=6.875 $Y2=1.97
r132 12 14 26.9307 $w=1.5e-07 $l=1.06066e-07 $layer=POLY_cond $X=7.135 $Y=1.97
+ $X2=7.21 $Y2=2.045
r133 12 13 94.8617 $w=1.5e-07 $l=1.85e-07 $layer=POLY_cond $X=7.135 $Y=1.97
+ $X2=6.95 $Y2=1.97
r134 11 22 2.83073 $w=1.5e-07 $l=7.5e-08 $layer=POLY_cond $X=6.875 $Y=1.895
+ $X2=6.875 $Y2=1.97
r135 10 43 15.449 $w=1.5e-07 $l=1.65e-07 $layer=POLY_cond $X=6.875 $Y=1.55
+ $X2=6.875 $Y2=1.385
r136 10 11 176.904 $w=1.5e-07 $l=3.45e-07 $layer=POLY_cond $X=6.875 $Y=1.55
+ $X2=6.875 $Y2=1.895
r137 7 20 2.83073 $w=1.5e-07 $l=7.5e-08 $layer=POLY_cond $X=6.76 $Y=2.045
+ $X2=6.76 $Y2=1.97
r138 7 9 159.06 $w=1.5e-07 $l=4.95e-07 $layer=POLY_cond $X=6.76 $Y=2.045
+ $X2=6.76 $Y2=2.54
r139 2 25 600 $w=1.7e-07 $l=4.08167e-07 $layer=licon1_PDIFF $count=1 $X=5.17
+ $Y=2.12 $X2=5.32 $Y2=2.46
r140 1 29 182 $w=1.7e-07 $l=4.21871e-07 $layer=licon1_NDIFF $count=1 $X=5.305
+ $Y=0.49 $X2=5.555 $Y2=0.805
.ends

.subckt PM_SKY130_FD_SC_HS__DFXTP_4%VPWR 1 2 3 4 5 6 7 26 28 32 36 40 42 46 48
+ 50 55 58 61 70 77 82 88 91 94 97 100 104
r126 103 104 9.3 $w=1.7e-07 $l=1.7e-07 $layer=mcon $count=1 $X=9.36 $Y=3.33
+ $X2=9.36 $Y2=3.33
r127 100 101 4.65 $w=1.7e-07 $l=3.4e-07 $layer=mcon $count=2 $X=8.4 $Y=3.33
+ $X2=8.4 $Y2=3.33
r128 98 101 0.267585 $w=4.9e-07 $l=9.6e-07 $layer=MET1_cond $X=7.44 $Y=3.33
+ $X2=8.4 $Y2=3.33
r129 97 98 9.3 $w=1.7e-07 $l=1.7e-07 $layer=mcon $count=1 $X=7.44 $Y=3.33
+ $X2=7.44 $Y2=3.33
r130 94 95 9.3 $w=1.7e-07 $l=1.7e-07 $layer=mcon $count=1 $X=6.48 $Y=3.33
+ $X2=6.48 $Y2=3.33
r131 91 92 4.65 $w=1.7e-07 $l=3.4e-07 $layer=mcon $count=2 $X=1.68 $Y=3.33
+ $X2=1.68 $Y2=3.33
r132 89 92 0.267585 $w=4.9e-07 $l=9.6e-07 $layer=MET1_cond $X=0.72 $Y=3.33
+ $X2=1.68 $Y2=3.33
r133 88 89 4.65 $w=1.7e-07 $l=3.4e-07 $layer=mcon $count=2 $X=0.72 $Y=3.33
+ $X2=0.72 $Y2=3.33
r134 86 104 0.133793 $w=4.9e-07 $l=4.8e-07 $layer=MET1_cond $X=8.88 $Y=3.33
+ $X2=9.36 $Y2=3.33
r135 86 101 0.133793 $w=4.9e-07 $l=4.8e-07 $layer=MET1_cond $X=8.88 $Y=3.33
+ $X2=8.4 $Y2=3.33
r136 85 86 9.3 $w=1.7e-07 $l=1.7e-07 $layer=mcon $count=1 $X=8.88 $Y=3.33
+ $X2=8.88 $Y2=3.33
r137 83 100 5.16603 $w=1.7e-07 $l=8.5e-08 $layer=LI1_cond $X=8.505 $Y=3.33
+ $X2=8.42 $Y2=3.33
r138 83 85 24.4652 $w=1.68e-07 $l=3.75e-07 $layer=LI1_cond $X=8.505 $Y=3.33
+ $X2=8.88 $Y2=3.33
r139 82 103 4.01252 $w=1.7e-07 $l=1.82e-07 $layer=LI1_cond $X=9.235 $Y=3.33
+ $X2=9.417 $Y2=3.33
r140 82 85 23.1604 $w=1.68e-07 $l=3.55e-07 $layer=LI1_cond $X=9.235 $Y=3.33
+ $X2=8.88 $Y2=3.33
r141 81 98 0.133793 $w=4.9e-07 $l=4.8e-07 $layer=MET1_cond $X=6.96 $Y=3.33
+ $X2=7.44 $Y2=3.33
r142 81 95 0.133793 $w=4.9e-07 $l=4.8e-07 $layer=MET1_cond $X=6.96 $Y=3.33
+ $X2=6.48 $Y2=3.33
r143 80 81 9.3 $w=1.7e-07 $l=1.7e-07 $layer=mcon $count=1 $X=6.96 $Y=3.33
+ $X2=6.96 $Y2=3.33
r144 78 94 8.70163 $w=1.7e-07 $l=1.68e-07 $layer=LI1_cond $X=6.65 $Y=3.33
+ $X2=6.482 $Y2=3.33