* File: sky130_fd_sc_hs__xor3_4.pex.spice
* Created: Thu Aug 27 21:13:34 2020
* Program "Calibre xRC"
* Version "v2018.4_34.26"
* Nominal Temperature: 27C
* Circuit Temperature: 27C
* 
.subckt PM_SKY130_FD_SC_HS__XOR3_4%A_74_294# 1 2 3 4 15 17 19 22 25 26 30 33 34
+ 37 40 44 47 48 53
r114 51 53 5.5876 $w=3.28e-07 $l=1.6e-07 $layer=LI1_cond $X=4.08 $Y=1.1 $X2=4.24
+ $Y2=1.1
r115 47 49 19.8947 $w=6.68e-07 $l=6.85e-07 $layer=LI1_cond $X=3.99 $Y=2.07
+ $X2=3.99 $Y2=2.755
r116 47 48 10.6117 $w=6.68e-07 $l=1.65e-07 $layer=LI1_cond $X=3.99 $Y=2.07
+ $X2=3.99 $Y2=1.905
r117 41 53 4.62375 $w=1.7e-07 $l=1.65e-07 $layer=LI1_cond $X=4.24 $Y=1.265
+ $X2=4.24 $Y2=1.1
r118 41 48 41.754 $w=1.68e-07 $l=6.4e-07 $layer=LI1_cond $X=4.24 $Y=1.265
+ $X2=4.24 $Y2=1.905
r119 40 49 9.7861 $w=1.68e-07 $l=1.5e-07 $layer=LI1_cond $X=3.74 $Y=2.905
+ $X2=3.74 $Y2=2.755
r120 35 44 0.716491 $w=1.7e-07 $l=8.5e-08 $layer=LI1_cond $X=1.54 $Y=1.84
+ $X2=1.54 $Y2=1.925
r121 35 37 49.2567 $w=1.68e-07 $l=7.55e-07 $layer=LI1_cond $X=1.54 $Y=1.84
+ $X2=1.54 $Y2=1.085
r122 33 40 6.81649 $w=1.7e-07 $l=1.20208e-07 $layer=LI1_cond $X=3.655 $Y=2.99
+ $X2=3.74 $Y2=2.905
r123 33 34 147.444 $w=1.68e-07 $l=2.26e-06 $layer=LI1_cond $X=3.655 $Y=2.99
+ $X2=1.395 $Y2=2.99
r124 30 32 24.795 $w=3.28e-07 $l=7.1e-07 $layer=LI1_cond $X=1.23 $Y=2.105
+ $X2=1.23 $Y2=2.815
r125 28 34 7.76618 $w=1.7e-07 $l=2.03101e-07 $layer=LI1_cond $X=1.23 $Y=2.905
+ $X2=1.395 $Y2=2.99
r126 28 32 3.14303 $w=3.28e-07 $l=9e-08 $layer=LI1_cond $X=1.23 $Y=2.905
+ $X2=1.23 $Y2=2.815
r127 27 44 20.2246 $w=1.68e-07 $l=3.1e-07 $layer=LI1_cond $X=1.23 $Y=1.925
+ $X2=1.54 $Y2=1.925
r128 27 30 3.31764 $w=3.28e-07 $l=9.5e-08 $layer=LI1_cond $X=1.23 $Y=2.01
+ $X2=1.23 $Y2=2.105
r129 25 27 10.7647 $w=1.68e-07 $l=1.65e-07 $layer=LI1_cond $X=1.065 $Y=1.925
+ $X2=1.23 $Y2=1.925
r130 25 26 23.8128 $w=1.68e-07 $l=3.65e-07 $layer=LI1_cond $X=1.065 $Y=1.925
+ $X2=0.7 $Y2=1.925
r131 22 23 145.28 $w=1.7e-07 $l=1.7e-07 $layer=licon1_POLY $count=1 $X=0.535
+ $Y=1.635 $X2=0.535 $Y2=1.635
r132 20 26 7.32204 $w=1.7e-07 $l=1.75425e-07 $layer=LI1_cond $X=0.562 $Y=1.84
+ $X2=0.7 $Y2=1.925
r133 20 22 8.59094 $w=2.73e-07 $l=2.05e-07 $layer=LI1_cond $X=0.562 $Y=1.84
+ $X2=0.562 $Y2=1.635
r134 17 23 52.2586 $w=2.99e-07 $l=2.64575e-07 $layer=POLY_cond $X=0.505 $Y=1.885
+ $X2=0.535 $Y2=1.635
r135 17 19 184.767 $w=1.5e-07 $l=5.75e-07 $layer=POLY_cond $X=0.505 $Y=1.885
+ $X2=0.505 $Y2=2.46
r136 13 23 38.5562 $w=2.99e-07 $l=1.83916e-07 $layer=POLY_cond $X=0.495 $Y=1.47
+ $X2=0.535 $Y2=1.635
r137 13 15 287.149 $w=1.5e-07 $l=5.6e-07 $layer=POLY_cond $X=0.495 $Y=1.47
+ $X2=0.495 $Y2=0.91
r138 4 47 300 $w=1.7e-07 $l=5.40463e-07 $layer=licon1_PDIFF $count=2 $X=3.28
+ $Y=1.895 $X2=3.74 $Y2=2.07
r139 3 32 600 $w=1.7e-07 $l=9.26971e-07 $layer=licon1_PDIFF $count=1 $X=1.08
+ $Y=1.96 $X2=1.23 $Y2=2.815
r140 3 30 300 $w=1.7e-07 $l=2.10357e-07 $layer=licon1_PDIFF $count=2 $X=1.08
+ $Y=1.96 $X2=1.23 $Y2=2.105
r141 2 51 182 $w=1.7e-07 $l=6.10635e-07 $layer=licon1_NDIFF $count=1 $X=3.77
+ $Y=0.625 $X2=4.08 $Y2=1.1
r142 1 37 182 $w=1.7e-07 $l=6.27316e-07 $layer=licon1_NDIFF $count=1 $X=1.24
+ $Y=0.59 $X2=1.54 $Y2=1.085
.ends

.subckt PM_SKY130_FD_SC_HS__XOR3_4%A 1 3 4 6 7
c36 4 0 1.02266e-19 $X=1.165 $Y=1.34
r37 10 11 145.28 $w=1.7e-07 $l=1.7e-07 $layer=licon1_POLY $count=1 $X=1.075
+ $Y=1.505 $X2=1.075 $Y2=1.505
r38 7 11 6.45368 $w=3.73e-07 $l=2.1e-07 $layer=LI1_cond $X=1.097 $Y=1.295
+ $X2=1.097 $Y2=1.505
r39 4 10 38.9026 $w=2.7e-07 $l=2.05122e-07 $layer=POLY_cond $X=1.165 $Y=1.34
+ $X2=1.075 $Y2=1.505
r40 4 6 138.173 $w=1.5e-07 $l=4.3e-07 $layer=POLY_cond $X=1.165 $Y=1.34
+ $X2=1.165 $Y2=0.91
r41 1 10 77.2841 $w=2.7e-07 $l=4.13521e-07 $layer=POLY_cond $X=1.005 $Y=1.885
+ $X2=1.075 $Y2=1.505
r42 1 3 184.767 $w=1.5e-07 $l=5.75e-07 $layer=POLY_cond $X=1.005 $Y=1.885
+ $X2=1.005 $Y2=2.46
.ends

.subckt PM_SKY130_FD_SC_HS__XOR3_4%A_397_320# 1 2 7 9 10 14 18 20 21 25 27 29 31
+ 32 34 35 36 40 43 50 51 53
c116 34 0 4.26801e-20 $X=3.74 $Y=1.435
c117 32 0 1.33128e-19 $X=3.295 $Y=1.71
c118 27 0 4.28883e-20 $X=2.075 $Y=1.675
c119 25 0 9.37054e-20 $X=3.695 $Y=0.945
r120 51 55 46.6671 $w=3.65e-07 $l=1.65e-07 $layer=POLY_cond $X=3.802 $Y=1.57
+ $X2=3.802 $Y2=1.405
r121 50 51 145.28 $w=1.7e-07 $l=1.7e-07 $layer=licon1_POLY $count=1 $X=3.82
+ $Y=1.57 $X2=3.82 $Y2=1.57
r122 47 50 3.07318 $w=2.98e-07 $l=8e-08 $layer=LI1_cond $X=3.74 $Y=1.585
+ $X2=3.82 $Y2=1.585
r123 43 45 54.1497 $w=1.68e-07 $l=8.3e-07 $layer=LI1_cond $X=4.62 $Y=1.985
+ $X2=4.62 $Y2=2.815
r124 43 53 55.7807 $w=1.68e-07 $l=8.55e-07 $layer=LI1_cond $X=4.62 $Y=1.985
+ $X2=4.62 $Y2=1.13
r125 38 53 5.87448 $w=2.03e-07 $l=1.02e-07 $layer=LI1_cond $X=4.637 $Y=1.028
+ $X2=4.637 $Y2=1.13
r126 38 40 9.08914 $w=2.03e-07 $l=1.68e-07 $layer=LI1_cond $X=4.637 $Y=1.028
+ $X2=4.637 $Y2=0.86
r127 37 40 5.13969 $w=2.03e-07 $l=9.5e-08 $layer=LI1_cond $X=4.637 $Y=0.765
+ $X2=4.637 $Y2=0.86
r128 35 37 6.89401 $w=1.7e-07 $l=1.38109e-07 $layer=LI1_cond $X=4.535 $Y=0.68
+ $X2=4.637 $Y2=0.765
r129 35 36 46.3209 $w=1.68e-07 $l=7.1e-07 $layer=LI1_cond $X=4.535 $Y=0.68
+ $X2=3.825 $Y2=0.68
r130 34 47 4.061 $w=1.7e-07 $l=1.5e-07 $layer=LI1_cond $X=3.74 $Y=1.435 $X2=3.74
+ $Y2=1.585
r131 33 36 6.81649 $w=1.7e-07 $l=1.20208e-07 $layer=LI1_cond $X=3.74 $Y=0.765
+ $X2=3.825 $Y2=0.68
r132 33 34 43.7112 $w=1.68e-07 $l=6.7e-07 $layer=LI1_cond $X=3.74 $Y=0.765
+ $X2=3.74 $Y2=1.435
r133 30 32 32.7911 $w=2.2e-07 $l=9e-08 $layer=POLY_cond $X=3.205 $Y=1.71
+ $X2=3.295 $Y2=1.71
r134 30 31 32.7911 $w=2.2e-07 $l=9e-08 $layer=POLY_cond $X=3.205 $Y=1.71
+ $X2=3.115 $Y2=1.71
r135 25 55 235.872 $w=1.5e-07 $l=4.6e-07 $layer=POLY_cond $X=3.695 $Y=0.945
+ $X2=3.695 $Y2=1.405
r136 21 51 16.5998 $w=3.65e-07 $l=1.05e-07 $layer=POLY_cond $X=3.802 $Y=1.675
+ $X2=3.802 $Y2=1.57
r137 21 32 166.649 $w=1.5e-07 $l=3.25e-07 $layer=POLY_cond $X=3.62 $Y=1.675
+ $X2=3.295 $Y2=1.675
r138 18 30 11.7719 $w=1.5e-07 $l=1.1e-07 $layer=POLY_cond $X=3.205 $Y=1.82
+ $X2=3.205 $Y2=1.71
r139 18 20 159.06 $w=1.5e-07 $l=4.95e-07 $layer=POLY_cond $X=3.205 $Y=1.82
+ $X2=3.205 $Y2=2.315
r140 17 29 20.4101 $w=1.5e-07 $l=7.5e-08 $layer=POLY_cond $X=2.58 $Y=1.675
+ $X2=2.505 $Y2=1.675
r141 17 31 274.33 $w=1.5e-07 $l=5.35e-07 $layer=POLY_cond $X=2.58 $Y=1.675
+ $X2=3.115 $Y2=1.675
r142 12 29 5.30422 $w=1.5e-07 $l=7.5e-08 $layer=POLY_cond $X=2.505 $Y=1.6
+ $X2=2.505 $Y2=1.675
r143 12 14 297.404 $w=1.5e-07 $l=5.8e-07 $layer=POLY_cond $X=2.505 $Y=1.6
+ $X2=2.505 $Y2=1.02
r144 11 27 7.1379 $w=1.5e-07 $l=9e-08 $layer=POLY_cond $X=2.165 $Y=1.675
+ $X2=2.075 $Y2=1.675
r145 10 29 20.4101 $w=1.5e-07 $l=7.5e-08 $layer=POLY_cond $X=2.43 $Y=1.675
+ $X2=2.505 $Y2=1.675
r146 10 11 135.883 $w=1.5e-07 $l=2.65e-07 $layer=POLY_cond $X=2.43 $Y=1.675
+ $X2=2.165 $Y2=1.675
r147 7 27 83.7788 $w=1.8e-07 $l=2.1e-07 $layer=POLY_cond $X=2.075 $Y=1.885
+ $X2=2.075 $Y2=1.675
r148 7 9 126.927 $w=1.5e-07 $l=3.95e-07 $layer=POLY_cond $X=2.075 $Y=1.885
+ $X2=2.075 $Y2=2.28
r149 2 45 400 $w=1.7e-07 $l=1.04499e-06 $layer=licon1_PDIFF $count=1 $X=4.475
+ $Y=1.84 $X2=4.62 $Y2=2.815
r150 2 43 400 $w=1.7e-07 $l=2.05061e-07 $layer=licon1_PDIFF $count=1 $X=4.475
+ $Y=1.84 $X2=4.62 $Y2=1.985
r151 1 40 182 $w=1.7e-07 $l=5.55608e-07 $layer=licon1_NDIFF $count=1 $X=4.515
+ $Y=0.37 $X2=4.655 $Y2=0.86
.ends

.subckt PM_SKY130_FD_SC_HS__XOR3_4%B 1 3 4 8 10 11 12 13 14 16 17 21 23 26 28 29
+ 31 33 34 36 37 39 40 41 42
c136 41 0 1.36386e-19 $X=4.345 $Y=1.475
c137 21 0 1.47556e-19 $X=3.105 $Y=0.91
c138 8 0 1.59849e-19 $X=2.005 $Y=0.91
r139 45 47 11.9176 $w=3.64e-07 $l=9e-08 $layer=POLY_cond $X=4.997 $Y=1.385
+ $X2=4.997 $Y2=1.475
r140 45 46 145.28 $w=1.7e-07 $l=1.7e-07 $layer=licon1_POLY $count=1 $X=5.075
+ $Y=1.385 $X2=5.075 $Y2=1.385
r141 42 46 3.14303 $w=3.28e-07 $l=9e-08 $layer=LI1_cond $X=5.075 $Y=1.295
+ $X2=5.075 $Y2=1.385
r142 34 45 38.9663 $w=3.64e-07 $l=2.19499e-07 $layer=POLY_cond $X=4.87 $Y=1.22
+ $X2=4.997 $Y2=1.385
r143 34 36 154.24 $w=1.5e-07 $l=4.8e-07 $layer=POLY_cond $X=4.87 $Y=1.22
+ $X2=4.87 $Y2=0.74
r144 31 47 55.5185 $w=3.64e-07 $l=3.58022e-07 $layer=POLY_cond $X=4.845 $Y=1.765
+ $X2=4.997 $Y2=1.475
r145 31 33 204.047 $w=1.5e-07 $l=6.35e-07 $layer=POLY_cond $X=4.845 $Y=1.765
+ $X2=4.845 $Y2=2.4
r146 30 41 5.30422 $w=1.5e-07 $l=9.5e-08 $layer=POLY_cond $X=4.44 $Y=1.475
+ $X2=4.345 $Y2=1.475
r147 29 47 23.572 $w=1.5e-07 $l=2.42e-07 $layer=POLY_cond $X=4.755 $Y=1.475
+ $X2=4.997 $Y2=1.475
r148 29 30 161.521 $w=1.5e-07 $l=3.15e-07 $layer=POLY_cond $X=4.755 $Y=1.475
+ $X2=4.44 $Y2=1.475
r149 28 41 20.4101 $w=1.5e-07 $l=8.44097e-08 $layer=POLY_cond $X=4.365 $Y=1.4
+ $X2=4.345 $Y2=1.475
r150 27 28 587.117 $w=1.5e-07 $l=1.145e-06 $layer=POLY_cond $X=4.365 $Y=0.255
+ $X2=4.365 $Y2=1.4
r151 25 41 20.4101 $w=1.5e-07 $l=8.44097e-08 $layer=POLY_cond $X=4.325 $Y=1.55
+ $X2=4.345 $Y2=1.475
r152 25 26 781.968 $w=1.5e-07 $l=1.525e-06 $layer=POLY_cond $X=4.325 $Y=1.55
+ $X2=4.325 $Y2=3.075
r153 24 40 20.4101 $w=1.5e-07 $l=7.5e-08 $layer=POLY_cond $X=3.18 $Y=0.18
+ $X2=3.105 $Y2=0.18
r154 23 27 26.9307 $w=1.5e-07 $l=1.06066e-07 $layer=POLY_cond $X=4.29 $Y=0.18
+ $X2=4.365 $Y2=0.255
r155 23 24 569.17 $w=1.5e-07 $l=1.11e-06 $layer=POLY_cond $X=4.29 $Y=0.18
+ $X2=3.18 $Y2=0.18
r156 19 40 5.30422 $w=1.5e-07 $l=7.5e-08 $layer=POLY_cond $X=3.105 $Y=0.255
+ $X2=3.105 $Y2=0.18
r157 19 21 335.862 $w=1.5e-07 $l=6.55e-07 $layer=POLY_cond $X=3.105 $Y=0.255
+ $X2=3.105 $Y2=0.91
r158 18 39 23.6879 $w=1.5e-07 $l=9e-08 $layer=POLY_cond $X=2.76 $Y=3.15 $X2=2.67
+ $Y2=3.15
r159 17 26 26.9307 $w=1.5e-07 $l=1.06066e-07 $layer=POLY_cond $X=4.25 $Y=3.15
+ $X2=4.325 $Y2=3.075
r160 17 18 764.021 $w=1.5e-07 $l=1.49e-06 $layer=POLY_cond $X=4.25 $Y=3.15
+ $X2=2.76 $Y2=3.15
r161 14 16 126.927 $w=1.5e-07 $l=3.95e-07 $layer=POLY_cond $X=2.67 $Y=2.805
+ $X2=2.67 $Y2=2.41
r162 13 39 2.7459 $w=1.8e-07 $l=7.5e-08 $layer=POLY_cond $X=2.67 $Y=3.075
+ $X2=2.67 $Y2=3.15
r163 12 14 36.0588 $w=1.8e-07 $l=9e-08 $layer=POLY_cond $X=2.67 $Y=2.895
+ $X2=2.67 $Y2=2.805
r164 12 13 69.9677 $w=1.8e-07 $l=1.8e-07 $layer=POLY_cond $X=2.67 $Y=2.895
+ $X2=2.67 $Y2=3.075
r165 10 40 20.4101 $w=1.5e-07 $l=7.5e-08 $layer=POLY_cond $X=3.03 $Y=0.18
+ $X2=3.105 $Y2=0.18
r166 10 11 487.128 $w=1.5e-07 $l=9.5e-07 $layer=POLY_cond $X=3.03 $Y=0.18
+ $X2=2.08 $Y2=0.18
r167 6 11 26.9307 $w=1.5e-07 $l=1.06066e-07 $layer=POLY_cond $X=2.005 $Y=0.255
+ $X2=2.08 $Y2=0.18
r168 6 8 335.862 $w=1.5e-07 $l=6.55e-07 $layer=POLY_cond $X=2.005 $Y=0.255
+ $X2=2.005 $Y2=0.91
r169 5 37 7.1379 $w=1.5e-07 $l=9e-08 $layer=POLY_cond $X=1.63 $Y=3.15 $X2=1.54
+ $Y2=3.15
r170 4 39 23.6879 $w=1.5e-07 $l=9e-08 $layer=POLY_cond $X=2.58 $Y=3.15 $X2=2.67
+ $Y2=3.15
r171 4 5 487.128 $w=1.5e-07 $l=9.5e-07 $layer=POLY_cond $X=2.58 $Y=3.15 $X2=1.63
+ $Y2=3.15
r172 1 37 109.045 $w=1.8e-07 $l=2.75e-07 $layer=POLY_cond $X=1.54 $Y=2.875
+ $X2=1.54 $Y2=3.15
r173 1 3 159.06 $w=1.5e-07 $l=4.95e-07 $layer=POLY_cond $X=1.54 $Y=2.875
+ $X2=1.54 $Y2=2.38
.ends

.subckt PM_SKY130_FD_SC_HS__XOR3_4%A_1155_284# 1 2 7 9 12 15 16 17 19 26 29 30
+ 35
c86 35 0 6.08064e-20 $X=7.985 $Y=0.58
r87 32 35 11.1752 $w=3.28e-07 $l=3.2e-07 $layer=LI1_cond $X=7.665 $Y=0.58
+ $X2=7.985 $Y2=0.58
r88 29 31 11.2061 $w=4.18e-07 $l=2.55e-07 $layer=LI1_cond $X=7.54 $Y=2.455
+ $X2=7.54 $Y2=2.71
r89 29 30 8.7366 $w=4.18e-07 $l=1.65e-07 $layer=LI1_cond $X=7.54 $Y=2.455
+ $X2=7.54 $Y2=2.29
r90 23 26 4.37134 $w=2.88e-07 $l=1.1e-07 $layer=LI1_cond $X=5.94 $Y=1.605
+ $X2=6.05 $Y2=1.605
r91 23 24 145.28 $w=1.7e-07 $l=1.7e-07 $layer=licon1_POLY $count=1 $X=5.94
+ $Y=1.585 $X2=5.94 $Y2=1.585
r92 20 32 4.62375 $w=1.7e-07 $l=1.65e-07 $layer=LI1_cond $X=7.665 $Y=0.745
+ $X2=7.665 $Y2=0.58
r93 20 30 100.797 $w=1.68e-07 $l=1.545e-06 $layer=LI1_cond $X=7.665 $Y=0.745
+ $X2=7.665 $Y2=2.29
r94 19 31 12.7219 $w=1.68e-07 $l=1.95e-07 $layer=LI1_cond $X=7.415 $Y=2.905
+ $X2=7.415 $Y2=2.71
r95 16 19 6.81649 $w=1.7e-07 $l=1.20208e-07 $layer=LI1_cond $X=7.33 $Y=2.99
+ $X2=7.415 $Y2=2.905
r96 16 17 77.9626 $w=1.68e-07 $l=1.195e-06 $layer=LI1_cond $X=7.33 $Y=2.99
+ $X2=6.135 $Y2=2.99
r97 15 17 6.81649 $w=1.7e-07 $l=1.20208e-07 $layer=LI1_cond $X=6.05 $Y=2.905
+ $X2=6.135 $Y2=2.99
r98 14 26 3.86198 $w=1.7e-07 $l=1.45e-07 $layer=LI1_cond $X=6.05 $Y=1.75
+ $X2=6.05 $Y2=1.605
r99 14 15 75.3529 $w=1.68e-07 $l=1.155e-06 $layer=LI1_cond $X=6.05 $Y=1.75
+ $X2=6.05 $Y2=2.905
r100 10 24 38.6365 $w=3.35e-07 $l=2.16852e-07 $layer=POLY_cond $X=6.09 $Y=1.42
+ $X2=5.97 $Y2=1.585
r101 10 12 248.691 $w=1.5e-07 $l=4.85e-07 $layer=POLY_cond $X=6.09 $Y=1.42
+ $X2=6.09 $Y2=0.935
r102 7 24 55.1828 $w=3.35e-07 $l=3.01662e-07 $layer=POLY_cond $X=6.015 $Y=1.865
+ $X2=5.97 $Y2=1.585
r103 7 9 159.06 $w=1.5e-07 $l=4.95e-07 $layer=POLY_cond $X=6.015 $Y=1.865
+ $X2=6.015 $Y2=2.36
r104 2 29 600 $w=1.7e-07 $l=4.71964e-07 $layer=licon1_PDIFF $count=1 $X=7.35
+ $Y=2.05 $X2=7.495 $Y2=2.455
r105 1 35 182 $w=1.7e-07 $l=4.58121e-07 $layer=licon1_NDIFF $count=1 $X=7.62
+ $Y=0.37 $X2=7.985 $Y2=0.58
.ends

.subckt PM_SKY130_FD_SC_HS__XOR3_4%C 1 3 6 9 10 11 12 14 16 17 19 22 23 24
c78 23 0 1.85271e-20 $X=7.28 $Y=1.712
c79 1 0 8.54819e-20 $X=6.695 $Y=1.865
r80 24 27 145.28 $w=1.7e-07 $l=1.7e-07 $layer=licon1_POLY $count=1 $X=6.94
+ $Y=1.615 $X2=6.94 $Y2=1.615
r81 22 27 46.3382 $w=3.3e-07 $l=2.65e-07 $layer=POLY_cond $X=7.205 $Y=1.615
+ $X2=6.94 $Y2=1.615
r82 22 23 13.5877 $w=2.4e-07 $l=1.29167e-07 $layer=POLY_cond $X=7.205 $Y=1.615
+ $X2=7.28 $Y2=1.712
r83 21 27 16.6118 $w=3.3e-07 $l=9.5e-08 $layer=POLY_cond $X=6.845 $Y=1.615
+ $X2=6.94 $Y2=1.615
r84 17 19 91.58 $w=1.5e-07 $l=2.85e-07 $layer=POLY_cond $X=8.2 $Y=0.865 $X2=8.2
+ $Y2=0.58
r85 14 16 126.927 $w=1.5e-07 $l=3.95e-07 $layer=POLY_cond $X=7.72 $Y=1.975
+ $X2=7.72 $Y2=2.37
r86 13 23 13.5877 $w=2.4e-07 $l=2.2236e-07 $layer=POLY_cond $X=7.355 $Y=1.9
+ $X2=7.28 $Y2=1.712
r87 12 14 26.9307 $w=1.5e-07 $l=1.06066e-07 $layer=POLY_cond $X=7.645 $Y=1.9
+ $X2=7.72 $Y2=1.975
r88 12 13 148.702 $w=1.5e-07 $l=2.9e-07 $layer=POLY_cond $X=7.645 $Y=1.9
+ $X2=7.355 $Y2=1.9
r89 10 17 26.9307 $w=1.5e-07 $l=1.06066e-07 $layer=POLY_cond $X=8.125 $Y=0.94
+ $X2=8.2 $Y2=0.865
r90 10 11 394.83 $w=1.5e-07 $l=7.7e-07 $layer=POLY_cond $X=8.125 $Y=0.94
+ $X2=7.355 $Y2=0.94
r91 9 23 12.1617 $w=1.5e-07 $l=2.62e-07 $layer=POLY_cond $X=7.28 $Y=1.45
+ $X2=7.28 $Y2=1.712
r92 8 11 26.9307 $w=1.5e-07 $l=1.06066e-07 $layer=POLY_cond $X=7.28 $Y=1.015
+ $X2=7.355 $Y2=0.94
r93 8 9 223.053 $w=1.5e-07 $l=4.35e-07 $layer=POLY_cond $X=7.28 $Y=1.015
+ $X2=7.28 $Y2=1.45
r94 4 21 40.5863 $w=2.27e-07 $l=1.86145e-07 $layer=POLY_cond $X=6.77 $Y=1.45
+ $X2=6.725 $Y2=1.615
r95 4 6 264.074 $w=1.5e-07 $l=5.15e-07 $layer=POLY_cond $X=6.77 $Y=1.45 $X2=6.77
+ $Y2=0.935
r96 1 21 58.6348 $w=2.27e-07 $l=2.64575e-07 $layer=POLY_cond $X=6.695 $Y=1.865
+ $X2=6.725 $Y2=1.615
r97 1 3 159.06 $w=1.5e-07 $l=4.95e-07 $layer=POLY_cond $X=6.695 $Y=1.865
+ $X2=6.695 $Y2=2.36
.ends

.subckt PM_SKY130_FD_SC_HS__XOR3_4%A_1218_388# 1 2 7 9 12 14 16 19 21 23 26 28
+ 30 33 39 41 49 52 53 56 59 60 62 72
c139 62 0 6.08064e-20 $X=8.535 $Y=1.42
c140 56 0 1.85271e-20 $X=6.48 $Y=2.035
c141 53 0 1.54548e-19 $X=6.625 $Y=2.035
r142 72 73 1.76341 $w=4.1e-07 $l=1.5e-08 $layer=POLY_cond $X=10.055 $Y=1.51
+ $X2=10.07 $Y2=1.51
r143 71 72 48.7878 $w=4.1e-07 $l=4.15e-07 $layer=POLY_cond $X=9.64 $Y=1.51
+ $X2=10.055 $Y2=1.51
r144 70 71 4.11463 $w=4.1e-07 $l=3.5e-08 $layer=POLY_cond $X=9.605 $Y=1.51
+ $X2=9.64 $Y2=1.51
r145 69 70 46.4366 $w=4.1e-07 $l=3.95e-07 $layer=POLY_cond $X=9.21 $Y=1.51
+ $X2=9.605 $Y2=1.51
r146 68 69 15.8707 $w=4.1e-07 $l=1.35e-07 $layer=POLY_cond $X=9.075 $Y=1.51
+ $X2=9.21 $Y2=1.51
r147 67 68 34.6805 $w=4.1e-07 $l=2.95e-07 $layer=POLY_cond $X=8.78 $Y=1.51
+ $X2=9.075 $Y2=1.51
r148 62 65 12.5557 $w=4.1e-07 $l=1.27279e-07 $layer=POLY_cond $X=8.535 $Y=1.42
+ $X2=8.625 $Y2=1.51
r149 59 60 9.3 $w=1.7e-07 $l=1.7e-07 $layer=mcon $count=1 $X=8.4 $Y=2.035
+ $X2=8.4 $Y2=2.035
r150 56 77 6.74607 $w=3.33e-07 $l=1.15e-07 $layer=LI1_cond $X=6.472 $Y=2.035
+ $X2=6.472 $Y2=1.92
r151 55 56 9.3 $w=1.7e-07 $l=1.7e-07 $layer=mcon $count=1 $X=6.48 $Y=2.035
+ $X2=6.48 $Y2=2.035
r152 53 55 0.115467 $w=2.3e-07 $l=1.45e-07 $layer=MET1_cond $X=6.625 $Y=2.035
+ $X2=6.48 $Y2=2.035
r153 52 59 0.115467 $w=2.3e-07 $l=1.45e-07 $layer=MET1_cond $X=8.255 $Y=2.035
+ $X2=8.4 $Y2=2.035
r154 52 53 2.01732 $w=1.4e-07 $l=1.63e-06 $layer=MET1_cond $X=8.255 $Y=2.035
+ $X2=6.625 $Y2=2.035
r155 50 67 9.99268 $w=4.1e-07 $l=8.5e-08 $layer=POLY_cond $X=8.695 $Y=1.51
+ $X2=8.78 $Y2=1.51
r156 50 65 8.22927 $w=4.1e-07 $l=7e-08 $layer=POLY_cond $X=8.695 $Y=1.51
+ $X2=8.625 $Y2=1.51
r157 49 50 96.8533 $w=1.7e-07 $l=2.55e-07 $layer=licon1_POLY $count=1 $X=8.695
+ $Y=1.42 $X2=8.695 $Y2=1.42
r158 47 60 22.5478 $w=2.28e-07 $l=4.5e-07 $layer=LI1_cond $X=8.4 $Y=1.585
+ $X2=8.4 $Y2=2.035
r159 46 49 10.3021 $w=3.28e-07 $l=2.95e-07 $layer=LI1_cond $X=8.4 $Y=1.42
+ $X2=8.695 $Y2=1.42
r160 46 47 2.85155 $w=2.3e-07 $l=1.65e-07 $layer=LI1_cond $X=8.4 $Y=1.42 $X2=8.4
+ $Y2=1.585
r161 44 62 90.9279 $w=3.3e-07 $l=5.2e-07 $layer=POLY_cond $X=8.015 $Y=1.42
+ $X2=8.535 $Y2=1.42
r162 43 44 96.8533 $w=1.7e-07 $l=2.55e-07 $layer=licon1_POLY $count=1 $X=8.015
+ $Y=1.42 $X2=8.015 $Y2=1.42
r163 41 46 4.01609 $w=3.28e-07 $l=1.15e-07 $layer=LI1_cond $X=8.285 $Y=1.42
+ $X2=8.4 $Y2=1.42
r164 41 43 9.42908 $w=3.28e-07 $l=2.7e-07 $layer=LI1_cond $X=8.285 $Y=1.42
+ $X2=8.015 $Y2=1.42
r165 39 77 53.1711 $w=1.68e-07 $l=8.15e-07 $layer=LI1_cond $X=6.555 $Y=1.105
+ $X2=6.555 $Y2=1.92
r166 31 73 26.4667 $w=1.5e-07 $l=2.55e-07 $layer=POLY_cond $X=10.07 $Y=1.255
+ $X2=10.07 $Y2=1.51
r167 31 33 264.074 $w=1.5e-07 $l=5.15e-07 $layer=POLY_cond $X=10.07 $Y=1.255
+ $X2=10.07 $Y2=0.74
r168 28 72 26.4667 $w=1.5e-07 $l=2.55e-07 $layer=POLY_cond $X=10.055 $Y=1.765
+ $X2=10.055 $Y2=1.51
r169 28 30 204.047 $w=1.5e-07 $l=6.35e-07 $layer=POLY_cond $X=10.055 $Y=1.765
+ $X2=10.055 $Y2=2.4
r170 24 71 26.4667 $w=1.5e-07 $l=2.55e-07 $layer=POLY_cond $X=9.64 $Y=1.255
+ $X2=9.64 $Y2=1.51
r171 24 26 264.074 $w=1.5e-07 $l=5.15e-07 $layer=POLY_cond $X=9.64 $Y=1.255
+ $X2=9.64 $Y2=0.74
r172 21 70 26.4667 $w=1.5e-07 $l=2.55e-07 $layer=POLY_cond $X=9.605 $Y=1.765
+ $X2=9.605 $Y2=1.51
r173 21 23 204.047 $w=1.5e-07 $l=6.35e-07 $layer=POLY_cond $X=9.605 $Y=1.765
+ $X2=9.605 $Y2=2.4
r174 17 69 26.4667 $w=1.5e-07 $l=2.55e-07 $layer=POLY_cond $X=9.21 $Y=1.255
+ $X2=9.21 $Y2=1.51
r175 17 19 264.074 $w=1.5e-07 $l=5.15e-07 $layer=POLY_cond $X=9.21 $Y=1.255
+ $X2=9.21 $Y2=0.74
r176 14 68 26.4667 $w=1.5e-07 $l=2.55e-07 $layer=POLY_cond $X=9.075 $Y=1.765
+ $X2=9.075 $Y2=1.51
r177 14 16 204.047 $w=1.5e-07 $l=6.35e-07 $layer=POLY_cond $X=9.075 $Y=1.765
+ $X2=9.075 $Y2=2.4
r178 10 67 26.4667 $w=1.5e-07 $l=2.55e-07 $layer=POLY_cond $X=8.78 $Y=1.255
+ $X2=8.78 $Y2=1.51
r179 10 12 264.074 $w=1.5e-07 $l=5.15e-07 $layer=POLY_cond $X=8.78 $Y=1.255
+ $X2=8.78 $Y2=0.74
r180 7 65 26.4667 $w=1.5e-07 $l=2.55e-07 $layer=POLY_cond $X=8.625 $Y=1.765
+ $X2=8.625 $Y2=1.51
r181 7 9 204.047 $w=1.5e-07 $l=6.35e-07 $layer=POLY_cond $X=8.625 $Y=1.765
+ $X2=8.625 $Y2=2.4
r182 2 56 300 $w=1.7e-07 $l=4.46654e-07 $layer=licon1_PDIFF $count=2 $X=6.09
+ $Y=1.94 $X2=6.47 $Y2=2.085
r183 1 39 182 $w=1.7e-07 $l=6.56658e-07 $layer=licon1_NDIFF $count=1 $X=6.165
+ $Y=0.615 $X2=6.555 $Y2=1.105
.ends

.subckt PM_SKY130_FD_SC_HS__XOR3_4%A_27_118# 1 2 3 4 13 14 17 19 21 24 27 29 31
+ 35 36
c84 35 0 5.90733e-20 $X=0.265 $Y=1.25
c85 29 0 1.18804e-19 $X=2.68 $Y=1.42
c86 13 0 4.31925e-20 $X=0.265 $Y=0.75
r87 35 36 60.6738 $w=1.68e-07 $l=9.3e-07 $layer=LI1_cond $X=0.17 $Y=1.25
+ $X2=0.17 $Y2=2.18
r88 29 31 18.4391 $w=2.48e-07 $l=4e-07 $layer=LI1_cond $X=2.68 $Y=1.42 $X2=2.68
+ $Y2=1.02
r89 25 29 27.4011 $w=1.68e-07 $l=4.2e-07 $layer=LI1_cond $X=2.26 $Y=1.505
+ $X2=2.68 $Y2=1.505
r90 25 37 24.7914 $w=1.68e-07 $l=3.8e-07 $layer=LI1_cond $X=2.26 $Y=1.505
+ $X2=1.88 $Y2=1.505
r91 25 27 28.5806 $w=2.48e-07 $l=6.2e-07 $layer=LI1_cond $X=2.26 $Y=1.59
+ $X2=2.26 $Y2=2.21
r92 24 37 0.716491 $w=1.7e-07 $l=8.5e-08 $layer=LI1_cond $X=1.88 $Y=1.42
+ $X2=1.88 $Y2=1.505
r93 23 24 43.7112 $w=1.68e-07 $l=6.7e-07 $layer=LI1_cond $X=1.88 $Y=0.75
+ $X2=1.88 $Y2=1.42
r94 22 34 5.39736 $w=1.7e-07 $l=1.82483e-07 $layer=LI1_cond $X=0.445 $Y=0.665
+ $X2=0.265 $Y2=0.66
r95 21 23 6.81649 $w=1.7e-07 $l=1.20208e-07 $layer=LI1_cond $X=1.795 $Y=0.665
+ $X2=1.88 $Y2=0.75
r96 21 22 88.0749 $w=1.68e-07 $l=1.35e-06 $layer=LI1_cond $X=1.795 $Y=0.665
+ $X2=0.445 $Y2=0.665
r97 17 36 7.52792 $w=2.78e-07 $l=1.4e-07 $layer=LI1_cond $X=0.225 $Y=2.32
+ $X2=0.225 $Y2=2.18
r98 17 19 1.02897 $w=2.78e-07 $l=2.5e-08 $layer=LI1_cond $X=0.225 $Y=2.32
+ $X2=0.225 $Y2=2.345
r99 14 35 8.99121 $w=3.58e-07 $l=1.8e-07 $layer=LI1_cond $X=0.265 $Y=1.07
+ $X2=0.265 $Y2=1.25
r100 13 34 2.62574 $w=3.6e-07 $l=9e-08 $layer=LI1_cond $X=0.265 $Y=0.75
+ $X2=0.265 $Y2=0.66
r101 13 14 10.2439 $w=3.58e-07 $l=3.2e-07 $layer=LI1_cond $X=0.265 $Y=0.75
+ $X2=0.265 $Y2=1.07
r102 4 27 600 $w=1.7e-07 $l=3.16228e-07 $layer=licon1_PDIFF $count=1 $X=2.15
+ $Y=1.96 $X2=2.3 $Y2=2.21
r103 3 19 300 $w=1.7e-07 $l=4.51719e-07 $layer=licon1_PDIFF $count=2 $X=0.135
+ $Y=1.96 $X2=0.28 $Y2=2.345
r104 2 31 182 $w=1.7e-07 $l=2.71109e-07 $layer=licon1_NDIFF $count=1 $X=2.58
+ $Y=0.81 $X2=2.72 $Y2=1.02
r105 1 34 91 $w=1.7e-07 $l=2.05061e-07 $layer=licon1_NDIFF $count=2 $X=0.135
+ $Y=0.59 $X2=0.28 $Y2=0.735
.ends

.subckt PM_SKY130_FD_SC_HS__XOR3_4%VPWR 1 2 3 4 5 18 22 28 31 32 36 40 42 47 49
+ 51 56 64 72 78 81 84 87 91
r111 90 91 9.3 $w=1.7e-07 $l=1.7e-07 $layer=mcon $count=1 $X=10.32 $Y=3.33
+ $X2=10.32 $Y2=3.33
r112 87 88 4.65 $w=1.7e-07 $l=3.4e-07 $layer=mcon $count=2 $X=9.36 $Y=3.33
+ $X2=9.36 $Y2=3.33
r113 85 88 0.267585 $w=4.9e-07 $l=9.6e-07 $layer=MET1_cond $X=8.4 $Y=3.33
+ $X2=9.36 $Y2=3.33
r114 84 85 9.3 $w=1.7e-07 $l=1.7e-07 $layer=mcon $count=1 $X=8.4 $Y=3.33 $X2=8.4
+ $Y2=3.33
r115 81 82 9.3 $w=1.7e-07 $l=1.7e-07 $layer=mcon $count=1 $X=5.04 $Y=3.33
+ $X2=5.04 $Y2=3.33
r116 78 79 9.3 $w=1.7e-07 $l=1.7e-07 $layer=mcon $count=1 $X=0.72 $Y=3.33
+ $X2=0.72 $Y2=3.33
r117 76 91 0.133793 $w=4.9e-07 $l=4.8e-07 $layer=MET1_cond $X=9.84 $Y=3.33
+ $X2=10.32 $Y2=3.33
r118 76 88 0.133793 $w=4.9e-07 $l=4.8e-07 $layer=MET1_cond $X=9.84 $Y=3.33
+ $X2=9.36 $Y2=3.33
r119 75 76 9.3 $w=1.7e-07 $l=1.7e-07 $layer=mcon $count=1 $X=9.84 $Y=3.33
+ $X2=9.84 $Y2=3.33
r120 73 87 5.16603 $w=1.7e-07 $l=8.5e-08 $layer=LI1_cond $X=9.465 $Y=3.33
+ $X2=9.38 $Y2=3.33
r121 73 75 24.4652 $w=1.68e-07 $l=3.75e-07 $layer=LI1_cond $X=9.465 $Y=3.33
+ $X2=9.84 $Y2=3.33
r122 72 90 4.01252 $w=1.7e-07 $l=1.82e-07 $layer=LI1_cond $X=10.195 $Y=3.33
+ $X2=10.377 $Y2=3.33
r123 72 75 23.1604 $w=1.68e-07 $l=3.55e-07 $layer=LI1_cond $X=10.195 $Y=3.33
+ $X2=9.84 $Y2=3.33
r124 71 85 0.133793 $w=4.9e-07 $l=4.8e-07 $layer=MET1_cond $X=7.92 $Y=3.33
+ $X2=8.4 $Y2=3.33
r125 70 71 3.1 $w=1.7e-07 $l=5.1e-07 $layer=mcon $count=3 $X=7.92 $Y=3.33
+ $X2=7.92 $Y2=3.33
r126 68 71 0.668963 $w=4.9e-07 $l=2.4e-06 $layer=MET1_cond $X=5.52 $Y=3.33
+ $X2=7.92 $Y2=3.33
r127 67 70 156.578 $w=1.68e-07 $l=2.4e-06 $layer=LI1_cond $X=5.52 $Y=3.33
+ $X2=7.92 $Y2=3.33
r128 67 68 3.1 $w=1.7e-07 $l=5.1e-07 $layer=mcon $count=3 $X=5.52 $Y=3.33
+ $X2=5.52 $Y2=3.33
r129 65 81 8.61065 $w=1.7e-07 $l=1.65e-07 $layer=LI1_cond $X=5.235 $Y=3.33
+ $X2=5.07 $Y2=3.33
r130 65 67 18.5936 $w=1.68e-07 $l=2.85e-07 $layer=LI1_cond $X=5.235 $Y=3.33
+ $X2=5.52 $Y2=3.33
r131 64 84 12.0118 $w=1.7e-07 $l=2.77e-07 $layer=LI1_cond $X=7.945 $Y=3.33
+ $X2=8.222 $Y2=3.33
r132 64 70 1.63102 $w=1.68e-07 $l=2.5e-08 $layer=LI1_cond $X=7.945 $Y=3.33
+ $X2=7.92 $Y2=3.33
r133 63 82 0.133793 $w=4.9e-07 $l=4.8e-07 $layer=MET1_cond $X=4.56 $Y=3.33
+ $X2=5.04 $Y2=3.33
r134 62 63 2.325 $w=1.7e-07 $l=6.8e-07 $layer=mcon $count=4 $X=4.56 $Y=3.33
+ $X2=4.56 $Y2=3.33
r135 60 63 0.936549 $w=4.9e-07 $l=3.36e-06 $layer=MET1_cond $X=1.2 $Y=3.33
+ $X2=4.56 $Y2=3.33
r136 60 79 0.133793 $w=4.9e-07 $l=4.8e-07 $layer=MET1_cond $X=1.2 $Y=3.33
+ $X2=0.72 $Y2=3.33
r137 59 62 219.209 $w=1.68e-07 $l=3.36e-06 $layer=LI1_cond $X=1.2 $Y=3.33
+ $X2=4.56 $Y2=3.33
r138 59 60 2.325 $w=1.7e-07 $l=6.8e-07 $layer=mcon $count=4 $X=1.2 $Y=3.33
+ $X2=1.2 $Y2=3.33
r139 57 78 8.61065 $w=1.7e-07 $l=1.65e-07 $layer=LI1_cond $X=0.895 $Y=3.33
+ $X2=0.73 $Y2=3.33
r140 57 59 19.8984 $w=1.68e-07 $l=3.05e-07 $layer=LI1_cond $X=0.895 $Y=3.33
+ $X2=1.2 $Y2=3.33
r141 56 81 8.61065 $w=1.7e-07 $l=1.65e-07 $layer=LI1_cond $X=4.905 $Y=3.33
+ $X2=5.07 $Y2=3.33
r142 56 62 22.508 $w=1.68e-07 $l=3.45e-07 $layer=LI1_cond $X=4.905 $Y=3.33
+ $X2=4.56 $Y2=3.33
r143 54 79 0.133793 $w=4.9e-07 $l=4.8e-07 $layer=MET1_cond $X=0.24 $Y=3.33
+ $X2=0.72 $Y2=3.33
r144 53 54 9.3 $w=1.7e-07 $l=1.7e-07 $layer=mcon $count=1 $X=0.24 $Y=3.33
+ $X2=0.24 $Y2=3.33
r145 51 78 8.61065 $w=1.7e-07 $l=1.65e-07 $layer=LI1_cond $X=0.565 $Y=3.33
+ $X2=0.73 $Y2=3.33
r146 51 53 21.2032 $w=1.68e-07 $l=3.25e-07 $layer=LI1_cond $X=0.565 $Y=3.33
+ $X2=0.24 $Y2=3.33
r147 49 68 0.0668963 $w=4.9e-07 $l=2.4e-07 $layer=MET1_cond $X=5.28 $Y=3.33
+ $X2=5.52 $Y2=3.33
r148 49 82 0.0668963 $w=4.9e-07 $l=2.4e-07 $layer=MET1_cond $X=5.28 $Y=3.33
+ $X2=5.04 $Y2=3.33
r149 47 48 9.86413 $w=5.53e-07 $l=1.65e-07 $layer=LI1_cond $X=8.222 $Y=2.495
+ $X2=8.222 $Y2=2.33
r150 42 45 38.2611 $w=2.48e-07 $l=8.3e-07 $layer=LI1_cond $X=10.32 $Y=1.985
+ $X2=10.32 $Y2=2.815
r151 40 90 3.13065 $w=2.5e-07 $l=1.09864e-07 $layer=LI1_cond $X=10.32 $Y=3.245
+ $X2=10.377 $Y2=3.33
r152 40 45 19.822 $w=2.48e-07 $l=4.3e-07 $layer=LI1_cond $X=10.32 $Y=3.245
+ $X2=10.32 $Y2=2.815
r153 36 39 54.1497 $w=1.68e-07 $l=8.3e-07 $layer=LI1_cond $X=9.38 $Y=1.985
+ $X2=9.38 $Y2=2.815
r154 34 87 1.34256 $w=1.7e-07 $l=8.5e-08 $layer=LI1_cond $X=9.38 $Y=3.245
+ $X2=9.38 $Y2=3.33
r155 34 39 28.0535 $w=1.68e-07 $l=4.3e-07 $layer=LI1_cond $X=9.38 $Y=3.245
+ $X2=9.38 $Y2=2.815
r156 33 84 12.0118 $w=1.7e-07 $l=2.78e-07 $layer=LI1_cond $X=8.5 $Y=3.33
+ $X2=8.222 $Y2=3.33
r157 32 87 5.16603 $w=1.7e-07 $l=8.5e-08 $layer=LI1_cond $X=9.295 $Y=3.33
+ $X2=9.38 $Y2=3.33
r158 32 33 51.8663 $w=1.68e-07 $l=7.95e-07 $layer=LI1_cond $X=9.295 $Y=3.33
+ $X2=8.5 $Y2=3.33
r159 31 84 2.33542 $w=5.55e-07 $l=8.5e-08 $layer=LI1_cond $X=8.222 $Y=3.245
+ $X2=8.222 $Y2=3.33
r160 30 47 2.41371 $w=5.53e-07 $l=1.12e-07 $layer=LI1_cond $X=8.222 $Y=2.607
+ $X2=8.222 $Y2=2.495
r161 30 31 13.7495 $w=5.53e-07 $l=6.38e-07 $layer=LI1_cond $X=8.222 $Y=2.607
+ $X2=8.222 $Y2=3.245
r162 28 48 22.508 $w=1.68e-07 $l=3.45e-07 $layer=LI1_cond $X=8.03 $Y=1.985
+ $X2=8.03 $Y2=2.33
r163 22 25 28.9857 $w=3.28e-07 $l=8.3e-07 $layer=LI1_cond $X=5.07 $Y=1.985
+ $X2=5.07 $Y2=2.815
r164 20 81 0.89609 $w=3.3e-07 $l=8.5e-08 $layer=LI1_cond $X=5.07 $Y=3.245
+ $X2=5.07 $Y2=3.33
r165 20 25 15.0167 $w=3.28e-07 $l=4.3e-07 $layer=LI1_cond $X=5.07 $Y=3.245
+ $X2=5.07 $Y2=2.815
r166 16 78 0.89609 $w=3.3e-07 $l=8.5e-08 $layer=LI1_cond $X=0.73 $Y=3.245
+ $X2=0.73 $Y2=3.33
r167 16 18 31.4303 $w=3.28e-07 $l=9e-07 $layer=LI1_cond $X=0.73 $Y=3.245
+ $X2=0.73 $Y2=2.345
r168 5 45 400 $w=1.7e-07 $l=1.04732e-06 $layer=licon1_PDIFF $count=1 $X=10.13
+ $Y=1.84 $X2=10.28 $Y2=2.815
r169 5 42 400 $w=1.7e-07 $l=2.10357e-07 $layer=licon1_PDIFF $count=1 $X=10.13
+ $Y=1.84 $X2=10.28 $Y2=1.985
r170 4 39 400 $w=1.7e-07 $l=1.08392e-06 $layer=licon1_PDIFF $count=1 $X=9.15
+ $Y=1.84 $X2=9.38 $Y2=2.815
r171 4 36 400 $w=1.7e-07 $l=2.93684e-07 $layer=licon1_PDIFF $count=1 $X=9.15
+ $Y=1.84 $X2=9.38 $Y2=1.985
r172 3 47 200 $w=1.7e-07 $l=7.97026e-07 $layer=licon1_PDIFF $count=3 $X=7.795
+ $Y=2.05 $X2=8.4 $Y2=2.495
r173 3 28 300 $w=1.7e-07 $l=2.65518e-07 $layer=licon1_PDIFF $count=2 $X=7.795
+ $Y=2.05 $X2=8.03 $Y2=1.985
r174 2 25 400 $w=1.7e-07 $l=1.04732e-06 $layer=licon1_PDIFF $count=1 $X=4.92
+ $Y=1.84 $X2=5.07 $Y2=2.815
r175 2 22 400 $w=1.7e-07 $l=2.10357e-07 $layer=licon1_PDIFF $count=1 $X=4.92
+ $Y=1.84 $X2=5.07 $Y2=1.985
r176 1 18 300 $w=1.7e-07 $l=4.53845e-07 $layer=licon1_PDIFF $count=2 $X=0.58
+ $Y=1.96 $X2=0.73 $Y2=2.345
.ends

.subckt PM_SKY130_FD_SC_HS__XOR3_4%A_323_392# 1 2 3 4 13 15 17 22 23 24 26 27 28
+ 32 33 34 38 42 44
c131 38 0 1.54548e-19 $X=7.325 $Y=1.95
c132 13 0 1.12299e-19 $X=1.765 $Y=2.565
r133 42 44 26.4225 $w=1.68e-07 $l=4.05e-07 $layer=LI1_cond $X=6.92 $Y=2.035
+ $X2=7.325 $Y2=2.035
r134 38 44 0.716491 $w=1.7e-07 $l=8.5e-08 $layer=LI1_cond $X=7.325 $Y=1.95
+ $X2=7.325 $Y2=2.035
r135 37 38 99.492 $w=1.68e-07 $l=1.525e-06 $layer=LI1_cond $X=7.325 $Y=0.425
+ $X2=7.325 $Y2=1.95
r136 33 37 6.81649 $w=1.7e-07 $l=1.20208e-07 $layer=LI1_cond $X=7.24 $Y=0.34
+ $X2=7.325 $Y2=0.425
r137 33 34 83.508 $w=1.68e-07 $l=1.28e-06 $layer=LI1_cond $X=7.24 $Y=0.34
+ $X2=5.96 $Y2=0.34
r138 30 32 0.460977 $w=2.48e-07 $l=1e-08 $layer=LI1_cond $X=5.835 $Y=0.78
+ $X2=5.835 $Y2=0.77
r139 29 34 7.14316 $w=1.7e-07 $l=1.62019e-07 $layer=LI1_cond $X=5.835 $Y=0.425
+ $X2=5.96 $Y2=0.34
r140 29 32 15.9037 $w=2.48e-07 $l=3.45e-07 $layer=LI1_cond $X=5.835 $Y=0.425
+ $X2=5.835 $Y2=0.77
r141 27 30 7.14316 $w=1.7e-07 $l=1.62019e-07 $layer=LI1_cond $X=5.71 $Y=0.865
+ $X2=5.835 $Y2=0.78
r142 27 28 41.1016 $w=1.68e-07 $l=6.3e-07 $layer=LI1_cond $X=5.71 $Y=0.865
+ $X2=5.08 $Y2=0.865
r143 26 28 6.81649 $w=1.7e-07 $l=1.20208e-07 $layer=LI1_cond $X=4.995 $Y=0.78
+ $X2=5.08 $Y2=0.865
r144 25 26 23.1604 $w=1.68e-07 $l=3.55e-07 $layer=LI1_cond $X=4.995 $Y=0.425
+ $X2=4.995 $Y2=0.78
r145 23 25 6.81649 $w=1.7e-07 $l=1.20208e-07 $layer=LI1_cond $X=4.91 $Y=0.34
+ $X2=4.995 $Y2=0.425
r146 23 24 92.9679 $w=1.68e-07 $l=1.425e-06 $layer=LI1_cond $X=4.91 $Y=0.34
+ $X2=3.485 $Y2=0.34
r147 20 22 119.39 $w=1.68e-07 $l=1.83e-06 $layer=LI1_cond $X=3.4 $Y=2.565
+ $X2=3.4 $Y2=0.735
r148 19 24 6.81649 $w=1.7e-07 $l=1.20208e-07 $layer=LI1_cond $X=3.4 $Y=0.425
+ $X2=3.485 $Y2=0.34
r149 19 22 20.2246 $w=1.68e-07 $l=3.1e-07 $layer=LI1_cond $X=3.4 $Y=0.425
+ $X2=3.4 $Y2=0.735
r150 18 40 5.12568 $w=1.7e-07 $l=1.65e-07 $layer=LI1_cond $X=1.93 $Y=2.65
+ $X2=1.765 $Y2=2.65
r151 17 20 6.81649 $w=1.7e-07 $l=1.20208e-07 $layer=LI1_cond $X=3.315 $Y=2.65
+ $X2=3.4 $Y2=2.565
r152 17 18 90.3583 $w=1.68e-07 $l=1.385e-06 $layer=LI1_cond $X=3.315 $Y=2.65
+ $X2=1.93 $Y2=2.65
r153 13 40 2.6405 $w=3.3e-07 $l=8.5e-08 $layer=LI1_cond $X=1.765 $Y=2.565
+ $X2=1.765 $Y2=2.65
r154 13 15 10.4768 $w=3.28e-07 $l=3e-07 $layer=LI1_cond $X=1.765 $Y=2.565
+ $X2=1.765 $Y2=2.265