* File: sky130_fd_sc_hs__sedfxtp_2.pex.spice
* Created: Tue Sep  1 20:24:39 2020
* Program "Calibre xRC"
* Version "v2018.4_34.26"
* Nominal Temperature: 27C
* Circuit Temperature: 27C
* 
.subckt PM_SKY130_FD_SC_HS__SEDFXTP_2%D 2 3 5 8 12 13 18 19 21 23
c42 23 0 2.2081e-19 $X=0.525 $Y=1.99
c43 18 0 1.59585e-19 $X=0.525 $Y=1.145
r44 21 23 40.6903 $w=3.3e-07 $l=1.65e-07 $layer=POLY_cond $X=0.525 $Y=1.825
+ $X2=0.525 $Y2=1.99
r45 21 22 96.8533 $w=1.7e-07 $l=2.55e-07 $layer=licon1_POLY $count=1 $X=0.525
+ $Y=1.825 $X2=0.525 $Y2=1.825
r46 18 21 118.906 $w=3.3e-07 $l=6.8e-07 $layer=POLY_cond $X=0.525 $Y=1.145
+ $X2=0.525 $Y2=1.825
r47 18 19 96.8533 $w=1.7e-07 $l=2.55e-07 $layer=licon1_POLY $count=1 $X=0.525
+ $Y=1.145 $X2=0.525 $Y2=1.145
r48 13 22 4.85239 $w=3.78e-07 $l=1.6e-07 $layer=LI1_cond $X=0.615 $Y=1.665
+ $X2=0.615 $Y2=1.825
r49 12 13 11.2212 $w=3.78e-07 $l=3.7e-07 $layer=LI1_cond $X=0.615 $Y=1.295
+ $X2=0.615 $Y2=1.665
r50 12 19 4.54912 $w=3.78e-07 $l=1.5e-07 $layer=LI1_cond $X=0.615 $Y=1.295
+ $X2=0.615 $Y2=1.145
r51 11 18 46.2115 $w=3.3e-07 $l=1.65e-07 $layer=POLY_cond $X=0.525 $Y=0.98
+ $X2=0.525 $Y2=1.145
r52 8 11 205.106 $w=1.5e-07 $l=4e-07 $layer=POLY_cond $X=0.615 $Y=0.58 $X2=0.615
+ $Y2=0.98
r53 3 5 126.927 $w=1.5e-07 $l=3.95e-07 $layer=POLY_cond $X=0.57 $Y=2.245
+ $X2=0.57 $Y2=2.64
r54 2 3 36.0588 $w=1.8e-07 $l=9e-08 $layer=POLY_cond $X=0.57 $Y=2.155 $X2=0.57
+ $Y2=2.245
r55 2 23 64.1371 $w=1.8e-07 $l=1.65e-07 $layer=POLY_cond $X=0.57 $Y=2.155
+ $X2=0.57 $Y2=1.99
.ends

.subckt PM_SKY130_FD_SC_HS__SEDFXTP_2%A_180_290# 1 2 7 9 12 14 18 19 20 21 22 23
+ 26 30 32 34 44
c107 44 0 1.26127e-19 $X=2.425 $Y=1.685
c108 34 0 7.02076e-20 $X=2.22 $Y=1.685
c109 32 0 7.48038e-20 $X=2.22 $Y=1.95
c110 23 0 3.52195e-20 $X=1.305 $Y=2.035
c111 21 0 1.59585e-19 $X=1.305 $Y=1.065
c112 19 0 1.74672e-19 $X=1.14 $Y=1.615
r113 35 44 35.8466 $w=3.3e-07 $l=2.05e-07 $layer=POLY_cond $X=2.22 $Y=1.685
+ $X2=2.425 $Y2=1.685
r114 34 35 145.28 $w=1.7e-07 $l=1.7e-07 $layer=licon1_POLY $count=1 $X=2.22
+ $Y=1.685 $X2=2.22 $Y2=1.685
r115 32 37 21.2032 $w=1.68e-07 $l=3.25e-07 $layer=LI1_cond $X=2.22 $Y=2.035
+ $X2=1.895 $Y2=2.035
r116 32 34 9.25447 $w=3.28e-07 $l=2.65e-07 $layer=LI1_cond $X=2.22 $Y=1.95
+ $X2=2.22 $Y2=1.685
r117 28 37 0.716491 $w=1.7e-07 $l=8.5e-08 $layer=LI1_cond $X=1.895 $Y=2.12
+ $X2=1.895 $Y2=2.035
r118 28 30 25.7701 $w=1.68e-07 $l=3.95e-07 $layer=LI1_cond $X=1.895 $Y=2.12
+ $X2=1.895 $Y2=2.515
r119 24 26 9.45003 $w=2.48e-07 $l=2.05e-07 $layer=LI1_cond $X=1.74 $Y=0.98
+ $X2=1.74 $Y2=0.775
r120 22 37 5.54545 $w=1.68e-07 $l=8.5e-08 $layer=LI1_cond $X=1.81 $Y=2.035
+ $X2=1.895 $Y2=2.035
r121 22 23 32.9465 $w=1.68e-07 $l=5.05e-07 $layer=LI1_cond $X=1.81 $Y=2.035
+ $X2=1.305 $Y2=2.035
r122 20 24 7.14316 $w=1.7e-07 $l=1.62019e-07 $layer=LI1_cond $X=1.615 $Y=1.065
+ $X2=1.74 $Y2=0.98
r123 20 21 20.2246 $w=1.68e-07 $l=3.1e-07 $layer=LI1_cond $X=1.615 $Y=1.065
+ $X2=1.305 $Y2=1.065
r124 18 19 72.64 $w=1.7e-07 $l=3.4e-07 $layer=licon1_POLY $count=2 $X=1.14
+ $Y=1.615 $X2=1.14 $Y2=1.615
r125 16 23 7.76618 $w=1.7e-07 $l=2.03101e-07 $layer=LI1_cond $X=1.14 $Y=1.95
+ $X2=1.305 $Y2=2.035
r126 16 18 11.699 $w=3.28e-07 $l=3.35e-07 $layer=LI1_cond $X=1.14 $Y=1.95
+ $X2=1.14 $Y2=1.615
r127 15 21 7.76618 $w=1.7e-07 $l=2.03101e-07 $layer=LI1_cond $X=1.14 $Y=1.15
+ $X2=1.305 $Y2=1.065
r128 15 18 16.239 $w=3.28e-07 $l=4.65e-07 $layer=LI1_cond $X=1.14 $Y=1.15
+ $X2=1.14 $Y2=1.615
r129 14 19 41.6085 $w=4.05e-07 $l=3.03e-07 $layer=POLY_cond $X=1.102 $Y=1.918
+ $X2=1.102 $Y2=1.615
r130 10 44 21.2229 $w=1.5e-07 $l=1.65e-07 $layer=POLY_cond $X=2.425 $Y=1.52
+ $X2=2.425 $Y2=1.685
r131 10 12 382.011 $w=1.5e-07 $l=7.45e-07 $layer=POLY_cond $X=2.425 $Y=1.52
+ $X2=2.425 $Y2=0.775
r132 7 14 49.5642 $w=3.18e-07 $l=3.78884e-07 $layer=POLY_cond $X=0.99 $Y=2.245
+ $X2=1.102 $Y2=1.918
r133 7 9 126.927 $w=1.5e-07 $l=3.95e-07 $layer=POLY_cond $X=0.99 $Y=2.245
+ $X2=0.99 $Y2=2.64
r134 2 30 600 $w=1.7e-07 $l=2.62678e-07 $layer=licon1_PDIFF $count=1 $X=1.75
+ $Y=2.315 $X2=1.895 $Y2=2.515
r135 1 26 182 $w=1.7e-07 $l=2.73038e-07 $layer=licon1_NDIFF $count=1 $X=1.635
+ $Y=0.565 $X2=1.78 $Y2=0.775
.ends

.subckt PM_SKY130_FD_SC_HS__SEDFXTP_2%DE 3 5 6 10 11 12 13 15 16 18 19 21 23 25
+ 27 28 31 32 33
c93 33 0 7.48038e-20 $X=1.68 $Y=1.65
c94 32 0 1.3237e-19 $X=1.68 $Y=1.485
c95 25 0 7.02076e-20 $X=1.995 $Y=1.135
r96 31 33 46.2115 $w=3.3e-07 $l=1.65e-07 $layer=POLY_cond $X=1.68 $Y=1.485
+ $X2=1.68 $Y2=1.65
r97 31 32 145.28 $w=1.7e-07 $l=1.7e-07 $layer=licon1_POLY $count=1 $X=1.68
+ $Y=1.485 $X2=1.68 $Y2=1.485
r98 28 32 6.28605 $w=3.28e-07 $l=1.8e-07 $layer=LI1_cond $X=1.68 $Y=1.665
+ $X2=1.68 $Y2=1.485
r99 21 23 126.927 $w=1.5e-07 $l=3.95e-07 $layer=POLY_cond $X=2.8 $Y=2.24 $X2=2.8
+ $Y2=2.635
r100 20 27 20.4101 $w=1.5e-07 $l=7.5e-08 $layer=POLY_cond $X=2.195 $Y=2.165
+ $X2=2.12 $Y2=2.165
r101 19 21 26.9307 $w=1.5e-07 $l=1.06066e-07 $layer=POLY_cond $X=2.725 $Y=2.165
+ $X2=2.8 $Y2=2.24
r102 19 20 271.766 $w=1.5e-07 $l=5.3e-07 $layer=POLY_cond $X=2.725 $Y=2.165
+ $X2=2.195 $Y2=2.165
r103 16 27 5.30422 $w=1.5e-07 $l=7.5e-08 $layer=POLY_cond $X=2.12 $Y=2.24
+ $X2=2.12 $Y2=2.165
r104 16 18 126.927 $w=1.5e-07 $l=3.95e-07 $layer=POLY_cond $X=2.12 $Y=2.24
+ $X2=2.12 $Y2=2.635
r105 13 25 2.83073 $w=1.5e-07 $l=7.5e-08 $layer=POLY_cond $X=1.995 $Y=1.06
+ $X2=1.995 $Y2=1.135
r106 13 15 91.58 $w=1.5e-07 $l=2.85e-07 $layer=POLY_cond $X=1.995 $Y=1.06
+ $X2=1.995 $Y2=0.775
r107 11 27 20.4101 $w=1.5e-07 $l=7.5e-08 $layer=POLY_cond $X=2.045 $Y=2.165
+ $X2=2.12 $Y2=2.165
r108 11 12 117.936 $w=1.5e-07 $l=2.3e-07 $layer=POLY_cond $X=2.045 $Y=2.165
+ $X2=1.815 $Y2=2.165
r109 10 12 26.9307 $w=1.5e-07 $l=1.06066e-07 $layer=POLY_cond $X=1.74 $Y=2.09
+ $X2=1.815 $Y2=2.165
r110 10 33 225.617 $w=1.5e-07 $l=4.4e-07 $layer=POLY_cond $X=1.74 $Y=2.09
+ $X2=1.74 $Y2=1.65
r111 7 25 161.521 $w=1.5e-07 $l=3.15e-07 $layer=POLY_cond $X=1.68 $Y=1.135
+ $X2=1.995 $Y2=1.135
r112 7 31 48.0869 $w=3.3e-07 $l=2.75e-07 $layer=POLY_cond $X=1.68 $Y=1.21
+ $X2=1.68 $Y2=1.485
r113 5 7 84.6064 $w=1.5e-07 $l=1.65e-07 $layer=POLY_cond $X=1.515 $Y=1.135
+ $X2=1.68 $Y2=1.135
r114 5 6 223.053 $w=1.5e-07 $l=4.35e-07 $layer=POLY_cond $X=1.515 $Y=1.135
+ $X2=1.08 $Y2=1.135
r115 1 6 26.9307 $w=1.5e-07 $l=1.06066e-07 $layer=POLY_cond $X=1.005 $Y=1.06
+ $X2=1.08 $Y2=1.135
r116 1 3 246.128 $w=1.5e-07 $l=4.8e-07 $layer=POLY_cond $X=1.005 $Y=1.06
+ $X2=1.005 $Y2=0.58
.ends

.subckt PM_SKY130_FD_SC_HS__SEDFXTP_2%A_548_87# 1 2 9 12 13 15 16 18 19 20 21 23
+ 25 26 30 35 37 39 45 47 49 50 51 57 58 64 65
c252 50 0 1.30591e-19 $X=14.975 $Y=1.665
c253 49 0 1.70806e-19 $X=14.665 $Y=1.665
c254 25 0 3.76658e-20 $X=13.765 $Y=2.05
c255 13 0 1.85697e-19 $X=3.19 $Y=2.24
c256 12 0 1.26127e-19 $X=3.19 $Y=2.15
r257 63 65 49.8355 $w=3.3e-07 $l=2.85e-07 $layer=POLY_cond $X=2.905 $Y=1.68
+ $X2=3.19 $Y2=1.68
r258 63 64 145.28 $w=1.7e-07 $l=1.7e-07 $layer=licon1_POLY $count=1 $X=2.905
+ $Y=1.68 $X2=2.905 $Y2=1.68
r259 60 63 15.7375 $w=3.3e-07 $l=9e-08 $layer=POLY_cond $X=2.815 $Y=1.68
+ $X2=2.905 $Y2=1.68
r260 57 58 9.3 $w=1.7e-07 $l=1.7e-07 $layer=mcon $count=1 $X=15.12 $Y=1.665
+ $X2=15.12 $Y2=1.665
r261 54 64 9.25447 $w=3.28e-07 $l=2.65e-07 $layer=LI1_cond $X=2.64 $Y=1.68
+ $X2=2.905 $Y2=1.68
r262 53 54 9.3 $w=1.7e-07 $l=1.7e-07 $layer=mcon $count=1 $X=2.64 $Y=1.665
+ $X2=2.64 $Y2=1.665
r263 51 53 0.115467 $w=2.3e-07 $l=1.45e-07 $layer=MET1_cond $X=2.785 $Y=1.665
+ $X2=2.64 $Y2=1.665
r264 50 57 0.115467 $w=2.3e-07 $l=1.45e-07 $layer=MET1_cond $X=14.975 $Y=1.665
+ $X2=15.12 $Y2=1.665
r265 50 51 15.0866 $w=1.4e-07 $l=1.219e-05 $layer=MET1_cond $X=14.975 $Y=1.665
+ $X2=2.785 $Y2=1.665
r266 48 58 18.5393 $w=2.28e-07 $l=3.7e-07 $layer=LI1_cond $X=14.75 $Y=1.665
+ $X2=15.12 $Y2=1.665
r267 48 49 0.280307 $w=2.3e-07 $l=8.5e-08 $layer=LI1_cond $X=14.75 $Y=1.665
+ $X2=14.665 $Y2=1.665
r268 44 45 8.63679 $w=3.28e-07 $l=1.7e-07 $layer=LI1_cond $X=14.532 $Y=1.12
+ $X2=14.532 $Y2=1.29
r269 39 42 5.93683 $w=3.28e-07 $l=1.7e-07 $layer=LI1_cond $X=13.675 $Y=2.215
+ $X2=13.675 $Y2=2.385
r270 39 40 145.28 $w=1.7e-07 $l=1.7e-07 $layer=licon1_POLY $count=1 $X=13.675
+ $Y=2.215 $X2=13.675 $Y2=2.215
r271 37 47 3.58051 $w=2.6e-07 $l=1.25499e-07 $layer=LI1_cond $X=14.665 $Y=2.3
+ $X2=14.575 $Y2=2.385
r272 36 49 6.59134 $w=1.7e-07 $l=1.15e-07 $layer=LI1_cond $X=14.665 $Y=1.78
+ $X2=14.665 $Y2=1.665
r273 36 37 33.9251 $w=1.68e-07 $l=5.2e-07 $layer=LI1_cond $X=14.665 $Y=1.78
+ $X2=14.665 $Y2=2.3
r274 35 49 6.59134 $w=1.7e-07 $l=1.15e-07 $layer=LI1_cond $X=14.665 $Y=1.55
+ $X2=14.665 $Y2=1.665
r275 35 45 16.9626 $w=1.68e-07 $l=2.6e-07 $layer=LI1_cond $X=14.665 $Y=1.55
+ $X2=14.665 $Y2=1.29
r276 30 44 18.8582 $w=3.28e-07 $l=5.4e-07 $layer=LI1_cond $X=14.48 $Y=0.58
+ $X2=14.48 $Y2=1.12
r277 27 42 4.62375 $w=1.7e-07 $l=1.65e-07 $layer=LI1_cond $X=13.84 $Y=2.385
+ $X2=13.675 $Y2=2.385
r278 26 47 2.90867 $w=1.7e-07 $l=1.75e-07 $layer=LI1_cond $X=14.4 $Y=2.385
+ $X2=14.575 $Y2=2.385
r279 26 27 36.5348 $w=1.68e-07 $l=5.6e-07 $layer=LI1_cond $X=14.4 $Y=2.385
+ $X2=13.84 $Y2=2.385
r280 25 40 38.5562 $w=2.99e-07 $l=2.05122e-07 $layer=POLY_cond $X=13.765 $Y=2.05
+ $X2=13.675 $Y2=2.215
r281 24 25 530.713 $w=1.5e-07 $l=1.035e-06 $layer=POLY_cond $X=13.765 $Y=1.015
+ $X2=13.765 $Y2=2.05
r282 21 40 52.2586 $w=2.99e-07 $l=2.7157e-07 $layer=POLY_cond $X=13.63 $Y=2.465
+ $X2=13.675 $Y2=2.215
r283 21 23 91.58 $w=1.5e-07 $l=2.85e-07 $layer=POLY_cond $X=13.63 $Y=2.465
+ $X2=13.63 $Y2=2.75
r284 19 24 26.9307 $w=1.5e-07 $l=1.06066e-07 $layer=POLY_cond $X=13.69 $Y=0.94
+ $X2=13.765 $Y2=1.015
r285 19 20 233.309 $w=1.5e-07 $l=4.55e-07 $layer=POLY_cond $X=13.69 $Y=0.94
+ $X2=13.235 $Y2=0.94
r286 16 20 26.9307 $w=1.5e-07 $l=1.06066e-07 $layer=POLY_cond $X=13.16 $Y=0.865
+ $X2=13.235 $Y2=0.94
r287 16 18 91.58 $w=1.5e-07 $l=2.85e-07 $layer=POLY_cond $X=13.16 $Y=0.865
+ $X2=13.16 $Y2=0.58
r288 13 15 126.927 $w=1.5e-07 $l=3.95e-07 $layer=POLY_cond $X=3.19 $Y=2.24
+ $X2=3.19 $Y2=2.635
r289 12 13 36.0588 $w=1.8e-07 $l=9e-08 $layer=POLY_cond $X=3.19 $Y=2.15 $X2=3.19
+ $Y2=2.24
r290 11 65 16.9318 $w=1.8e-07 $l=1.65e-07 $layer=POLY_cond $X=3.19 $Y=1.845
+ $X2=3.19 $Y2=1.68
r291 11 12 118.556 $w=1.8e-07 $l=3.05e-07 $layer=POLY_cond $X=3.19 $Y=1.845
+ $X2=3.19 $Y2=2.15
r292 7 60 21.2229 $w=1.5e-07 $l=1.65e-07 $layer=POLY_cond $X=2.815 $Y=1.515
+ $X2=2.815 $Y2=1.68
r293 7 9 379.447 $w=1.5e-07 $l=7.4e-07 $layer=POLY_cond $X=2.815 $Y=1.515
+ $X2=2.815 $Y2=0.775
r294 2 47 300 $w=1.7e-07 $l=2.10357e-07 $layer=licon1_PDIFF $count=2 $X=14.415
+ $Y=2.32 $X2=14.565 $Y2=2.465
r295 1 30 182 $w=1.7e-07 $l=2.71109e-07 $layer=licon1_NDIFF $count=1 $X=14.34
+ $Y=0.37 $X2=14.48 $Y2=0.58
.ends

.subckt PM_SKY130_FD_SC_HS__SEDFXTP_2%A_663_87# 1 2 7 9 10 11 12 14 17 18 21 22
+ 27 28 30 31 35 36 41 43 47
c110 41 0 1.05969e-19 $X=4.55 $Y=0.805
c111 12 0 1.43112e-19 $X=5.74 $Y=2.2
r112 44 47 5.10825 $w=4.78e-07 $l=2.05e-07 $layer=LI1_cond $X=4.21 $Y=2.495
+ $X2=4.415 $Y2=2.495
r113 35 36 72.64 $w=1.7e-07 $l=3.4e-07 $layer=licon1_POLY $count=2 $X=5.785
+ $Y=1.58 $X2=5.785 $Y2=1.58
r114 33 35 14.5686 $w=2.63e-07 $l=3.35e-07 $layer=LI1_cond $X=5.752 $Y=1.915
+ $X2=5.752 $Y2=1.58
r115 32 43 2.40986 $w=1.7e-07 $l=1.43e-07 $layer=LI1_cond $X=4.295 $Y=2
+ $X2=4.152 $Y2=2
r116 31 33 7.24806 $w=1.7e-07 $l=1.69245e-07 $layer=LI1_cond $X=5.62 $Y=2
+ $X2=5.752 $Y2=1.915
r117 31 32 86.4438 $w=1.68e-07 $l=1.325e-06 $layer=LI1_cond $X=5.62 $Y=2
+ $X2=4.295 $Y2=2
r118 30 44 6.90116 $w=1.7e-07 $l=2.4e-07 $layer=LI1_cond $X=4.21 $Y=2.255
+ $X2=4.21 $Y2=2.495
r119 29 43 4.02809 $w=2.27e-07 $l=1.1025e-07 $layer=LI1_cond $X=4.21 $Y=2.085
+ $X2=4.152 $Y2=2
r120 29 30 11.0909 $w=1.68e-07 $l=1.7e-07 $layer=LI1_cond $X=4.21 $Y=2.085
+ $X2=4.21 $Y2=2.255
r121 27 28 58.112 $w=1.7e-07 $l=4.25e-07 $layer=licon1_POLY $count=2 $X=4.13
+ $Y=1.78 $X2=4.13 $Y2=1.78
r122 25 43 4.02809 $w=2.27e-07 $l=8.5e-08 $layer=LI1_cond $X=4.152 $Y=1.915
+ $X2=4.152 $Y2=2
r123 25 27 5.45894 $w=2.83e-07 $l=1.35e-07 $layer=LI1_cond $X=4.152 $Y=1.915
+ $X2=4.152 $Y2=1.78
r124 24 27 31.1362 $w=2.83e-07 $l=7.7e-07 $layer=LI1_cond $X=4.152 $Y=1.01
+ $X2=4.152 $Y2=1.78
r125 21 22 58.112 $w=1.7e-07 $l=4.25e-07 $layer=licon1_POLY $count=2 $X=4.13
+ $Y=0.42 $X2=4.13 $Y2=0.42
r126 19 41 11.3252 $w=4.03e-07 $l=3.98e-07 $layer=LI1_cond $X=4.152 $Y=0.807
+ $X2=4.55 $Y2=0.807
r127 19 24 2.81058 $w=2.85e-07 $l=2.03e-07 $layer=LI1_cond $X=4.152 $Y=0.807
+ $X2=4.152 $Y2=1.01
r128 19 21 7.48077 $w=2.83e-07 $l=1.85e-07 $layer=LI1_cond $X=4.152 $Y=0.605
+ $X2=4.152 $Y2=0.42
r129 18 36 59.4528 $w=3.3e-07 $l=3.4e-07 $layer=POLY_cond $X=5.785 $Y=1.92
+ $X2=5.785 $Y2=1.58
r130 16 28 99.6709 $w=3.3e-07 $l=5.7e-07 $layer=POLY_cond $X=4.13 $Y=1.21
+ $X2=4.13 $Y2=1.78
r131 16 17 10.1687 $w=3.3e-07 $l=7.5e-08 $layer=POLY_cond $X=4.13 $Y=1.21
+ $X2=4.13 $Y2=1.135
r132 15 22 111.911 $w=3.3e-07 $l=6.4e-07 $layer=POLY_cond $X=4.13 $Y=1.06
+ $X2=4.13 $Y2=0.42
r133 15 17 10.1687 $w=3.3e-07 $l=7.5e-08 $layer=POLY_cond $X=4.13 $Y=1.06
+ $X2=4.13 $Y2=1.135
r134 12 18 50.3582 $w=2.68e-07 $l=3.01662e-07 $layer=POLY_cond $X=5.74 $Y=2.2
+ $X2=5.785 $Y2=1.92
r135 12 14 126.927 $w=1.5e-07 $l=3.95e-07 $layer=POLY_cond $X=5.74 $Y=2.2
+ $X2=5.74 $Y2=2.595
r136 10 17 16.9349 $w=1.5e-07 $l=1.65e-07 $layer=POLY_cond $X=3.965 $Y=1.135
+ $X2=4.13 $Y2=1.135
r137 10 11 256.383 $w=1.5e-07 $l=5e-07 $layer=POLY_cond $X=3.965 $Y=1.135
+ $X2=3.465 $Y2=1.135
r138 7 11 26.9307 $w=1.5e-07 $l=1.06066e-07 $layer=POLY_cond $X=3.39 $Y=1.06
+ $X2=3.465 $Y2=1.135
r139 7 9 91.58 $w=1.5e-07 $l=2.85e-07 $layer=POLY_cond $X=3.39 $Y=1.06 $X2=3.39
+ $Y2=0.775
r140 2 47 600 $w=1.7e-07 $l=2.81425e-07 $layer=licon1_PDIFF $count=1 $X=4.275
+ $Y=2.275 $X2=4.415 $Y2=2.495
r141 1 41 182 $w=1.7e-07 $l=2.41868e-07 $layer=licon1_NDIFF $count=1 $X=4.405
+ $Y=0.625 $X2=4.55 $Y2=0.805
.ends

.subckt PM_SKY130_FD_SC_HS__SEDFXTP_2%SCD 3 6 7 9 10 13
c43 13 0 8.67074e-20 $X=5.245 $Y=1.58
c44 3 0 3.01793e-19 $X=5.265 $Y=0.835
r45 13 16 40.6903 $w=3.3e-07 $l=1.65e-07 $layer=POLY_cond $X=5.245 $Y=1.58
+ $X2=5.245 $Y2=1.745
r46 13 15 46.2115 $w=3.3e-07 $l=1.65e-07 $layer=POLY_cond $X=5.245 $Y=1.58
+ $X2=5.245 $Y2=1.415
r47 13 14 145.28 $w=1.7e-07 $l=1.7e-07 $layer=licon1_POLY $count=1 $X=5.245
+ $Y=1.58 $X2=5.245 $Y2=1.58
r48 10 14 7.49192 $w=4.53e-07 $l=2.85e-07 $layer=LI1_cond $X=5.182 $Y=1.295
+ $X2=5.182 $Y2=1.58
r49 7 9 126.927 $w=1.5e-07 $l=3.95e-07 $layer=POLY_cond $X=5.32 $Y=2.2 $X2=5.32
+ $Y2=2.595
r50 6 7 36.0588 $w=1.8e-07 $l=9e-08 $layer=POLY_cond $X=5.32 $Y=2.11 $X2=5.32
+ $Y2=2.2
r51 6 16 141.879 $w=1.8e-07 $l=3.65e-07 $layer=POLY_cond $X=5.32 $Y=2.11
+ $X2=5.32 $Y2=1.745
r52 3 15 297.404 $w=1.5e-07 $l=5.8e-07 $layer=POLY_cond $X=5.265 $Y=0.835
+ $X2=5.265 $Y2=1.415
.ends

.subckt PM_SKY130_FD_SC_HS__SEDFXTP_2%SCE 1 3 4 5 7 8 11 15 16 17 20 22 25 26
c85 26 0 2.82531e-19 $X=4.67 $Y=1.345
c86 20 0 1.9935e-19 $X=5.625 $Y=0.835
r87 25 28 40.6969 $w=3.35e-07 $l=1.65e-07 $layer=POLY_cond $X=4.672 $Y=1.345
+ $X2=4.672 $Y2=1.51
r88 25 27 46.255 $w=3.35e-07 $l=1.65e-07 $layer=POLY_cond $X=4.672 $Y=1.345
+ $X2=4.672 $Y2=1.18
r89 25 26 145.28 $w=1.7e-07 $l=1.7e-07 $layer=licon1_POLY $count=1 $X=4.67
+ $Y=1.345 $X2=4.67 $Y2=1.345
r90 22 26 3.84148 $w=3.28e-07 $l=1.1e-07 $layer=LI1_cond $X=4.56 $Y=1.345
+ $X2=4.67 $Y2=1.345
r91 18 20 297.404 $w=1.5e-07 $l=5.8e-07 $layer=POLY_cond $X=5.625 $Y=0.255
+ $X2=5.625 $Y2=0.835
r92 16 18 26.9307 $w=1.5e-07 $l=1.06066e-07 $layer=POLY_cond $X=5.55 $Y=0.18
+ $X2=5.625 $Y2=0.255
r93 16 17 364.064 $w=1.5e-07 $l=7.1e-07 $layer=POLY_cond $X=5.55 $Y=0.18
+ $X2=4.84 $Y2=0.18
r94 15 27 176.904 $w=1.5e-07 $l=3.45e-07 $layer=POLY_cond $X=4.765 $Y=0.835
+ $X2=4.765 $Y2=1.18
r95 12 17 26.9307 $w=1.5e-07 $l=1.06066e-07 $layer=POLY_cond $X=4.765 $Y=0.255
+ $X2=4.84 $Y2=0.18
r96 12 15 297.404 $w=1.5e-07 $l=5.8e-07 $layer=POLY_cond $X=4.765 $Y=0.255
+ $X2=4.765 $Y2=0.835
r97 9 11 202.543 $w=1.5e-07 $l=3.95e-07 $layer=POLY_cond $X=4.64 $Y=2.99
+ $X2=4.64 $Y2=2.595
r98 8 11 202.543 $w=1.5e-07 $l=3.95e-07 $layer=POLY_cond $X=4.64 $Y=2.2 $X2=4.64
+ $Y2=2.595
r99 7 8 36.0588 $w=1.8e-07 $l=9e-08 $layer=POLY_cond $X=4.64 $Y=2.11 $X2=4.64
+ $Y2=2.2
r100 7 28 233.226 $w=1.8e-07 $l=6e-07 $layer=POLY_cond $X=4.64 $Y=2.11 $X2=4.64
+ $Y2=1.51
r101 4 9 26.9307 $w=1.5e-07 $l=1.53542e-07 $layer=POLY_cond $X=4.55 $Y=3.105
+ $X2=4.64 $Y2=2.99
r102 4 5 428.16 $w=1.5e-07 $l=8.35e-07 $layer=POLY_cond $X=4.55 $Y=3.105
+ $X2=3.715 $Y2=3.105
r103 1 5 26.9307 $w=1.5e-07 $l=1.06066e-07 $layer=POLY_cond $X=3.64 $Y=3.03
+ $X2=3.715 $Y2=3.105
r104 1 3 126.927 $w=1.5e-07 $l=3.95e-07 $layer=POLY_cond $X=3.64 $Y=3.03
+ $X2=3.64 $Y2=2.635
.ends

.subckt PM_SKY130_FD_SC_HS__SEDFXTP_2%CLK 1 3 4 6 7
c34 7 0 1.22168e-20 $X=6.48 $Y=1.295
r35 10 11 145.28 $w=1.7e-07 $l=1.7e-07 $layer=licon1_POLY $count=1 $X=6.56
+ $Y=1.385 $X2=6.56 $Y2=1.385
r36 7 11 3.14303 $w=3.28e-07 $l=9e-08 $layer=LI1_cond $X=6.56 $Y=1.295 $X2=6.56
+ $Y2=1.385
r37 4 10 65.7037 $w=3.49e-07 $l=4.22137e-07 $layer=POLY_cond $X=6.755 $Y=1.745
+ $X2=6.62 $Y2=1.385
r38 4 6 204.047 $w=1.5e-07 $l=6.35e-07 $layer=POLY_cond $X=6.755 $Y=1.745
+ $X2=6.755 $Y2=2.38
r39 1 10 38.7725 $w=3.49e-07 $l=1.67481e-07 $layer=POLY_cond $X=6.625 $Y=1.22
+ $X2=6.62 $Y2=1.385
r40 1 3 154.24 $w=1.5e-07 $l=4.8e-07 $layer=POLY_cond $X=6.625 $Y=1.22 $X2=6.625
+ $Y2=0.74
.ends

.subckt PM_SKY130_FD_SC_HS__SEDFXTP_2%A_1538_74# 1 2 7 9 10 12 15 18 19 21 24 26
+ 27 28 33 34 38 41 42 43 45 46 47 49 52 53 55 57 58 61 62 63 66 68 69 73
c237 73 0 2.65373e-20 $X=13.285 $Y=1.42
c238 61 0 1.50148e-19 $X=8.84 $Y=2.185
c239 53 0 1.80054e-19 $X=12.205 $Y=1.635
c240 33 0 1.39112e-19 $X=8.73 $Y=1.82
c241 19 0 1.48476e-19 $X=13.21 $Y=2.465
r242 73 86 40.6903 $w=3.3e-07 $l=1.65e-07 $layer=POLY_cond $X=13.285 $Y=1.42
+ $X2=13.285 $Y2=1.585
r243 72 73 145.28 $w=1.7e-07 $l=1.7e-07 $layer=licon1_POLY $count=1 $X=13.285
+ $Y=1.42 $X2=13.285 $Y2=1.42
r244 69 72 5.06376 $w=3.28e-07 $l=1.45e-07 $layer=LI1_cond $X=13.285 $Y=1.275
+ $X2=13.285 $Y2=1.42
r245 66 77 35.8466 $w=3.3e-07 $l=2.05e-07 $layer=POLY_cond $X=9.49 $Y=1.18
+ $X2=9.285 $Y2=1.18
r246 65 66 145.28 $w=1.7e-07 $l=1.7e-07 $layer=licon1_POLY $count=1 $X=9.49
+ $Y=1.18 $X2=9.49 $Y2=1.18
r247 62 65 8.55602 $w=3.28e-07 $l=2.45e-07 $layer=LI1_cond $X=9.49 $Y=0.935
+ $X2=9.49 $Y2=1.18
r248 62 63 5.66838 $w=3.28e-07 $l=8.5e-08 $layer=LI1_cond $X=9.49 $Y=0.935
+ $X2=9.49 $Y2=0.85
r249 61 76 52.3552 $w=2.9e-07 $l=3.15e-07 $layer=POLY_cond $X=8.84 $Y=2.242
+ $X2=9.155 $Y2=2.242
r250 60 61 145.28 $w=1.7e-07 $l=1.7e-07 $layer=licon1_POLY $count=1 $X=8.84
+ $Y=2.185 $X2=8.84 $Y2=2.185
r251 58 60 3.16509 $w=4.24e-07 $l=1.1e-07 $layer=LI1_cond $X=8.73 $Y=2.085
+ $X2=8.84 $Y2=2.085
r252 56 68 2.76166 $w=1.7e-07 $l=1.65e-07 $layer=LI1_cond $X=12.37 $Y=1.275
+ $X2=12.205 $Y2=1.275
r253 55 69 4.62375 $w=1.7e-07 $l=1.65e-07 $layer=LI1_cond $X=13.12 $Y=1.275
+ $X2=13.285 $Y2=1.275
r254 55 56 48.9305 $w=1.68e-07 $l=7.5e-07 $layer=LI1_cond $X=13.12 $Y=1.275
+ $X2=12.37 $Y2=1.275
r255 53 82 46.2115 $w=3.3e-07 $l=1.65e-07 $layer=POLY_cond $X=12.205 $Y=1.635
+ $X2=12.205 $Y2=1.47
r256 52 53 145.28 $w=1.7e-07 $l=1.7e-07 $layer=licon1_POLY $count=1 $X=12.205
+ $Y=1.635 $X2=12.205 $Y2=1.635
r257 50 68 3.70735 $w=2.5e-07 $l=8.5e-08 $layer=LI1_cond $X=12.205 $Y=1.36
+ $X2=12.205 $Y2=1.275
r258 50 52 9.60369 $w=3.28e-07 $l=2.75e-07 $layer=LI1_cond $X=12.205 $Y=1.36
+ $X2=12.205 $Y2=1.635
r259 49 68 3.70735 $w=2.5e-07 $l=1.18427e-07 $layer=LI1_cond $X=12.125 $Y=1.19
+ $X2=12.205 $Y2=1.275
r260 48 49 11.0909 $w=1.68e-07 $l=1.7e-07 $layer=LI1_cond $X=12.125 $Y=1.02
+ $X2=12.125 $Y2=1.19
r261 46 48 6.81649 $w=1.7e-07 $l=1.20208e-07 $layer=LI1_cond $X=12.04 $Y=0.935
+ $X2=12.125 $Y2=1.02
r262 46 47 37.5134 $w=1.68e-07 $l=5.75e-07 $layer=LI1_cond $X=12.04 $Y=0.935
+ $X2=11.465 $Y2=0.935
r263 45 47 6.81649 $w=1.7e-07 $l=1.20208e-07 $layer=LI1_cond $X=11.38 $Y=0.85
+ $X2=11.465 $Y2=0.935
r264 44 45 27.7273 $w=1.68e-07 $l=4.25e-07 $layer=LI1_cond $X=11.38 $Y=0.425
+ $X2=11.38 $Y2=0.85
r265 42 44 6.81649 $w=1.7e-07 $l=1.20208e-07 $layer=LI1_cond $X=11.295 $Y=0.34
+ $X2=11.38 $Y2=0.425
r266 42 43 38.492 $w=1.68e-07 $l=5.9e-07 $layer=LI1_cond $X=11.295 $Y=0.34
+ $X2=10.705 $Y2=0.34
r267 40 43 6.81649 $w=1.7e-07 $l=1.20208e-07 $layer=LI1_cond $X=10.62 $Y=0.425
+ $X2=10.705 $Y2=0.34
r268 40 41 27.7273 $w=1.68e-07 $l=4.25e-07 $layer=LI1_cond $X=10.62 $Y=0.425
+ $X2=10.62 $Y2=0.85
r269 39 62 4.62375 $w=1.7e-07 $l=1.65e-07 $layer=LI1_cond $X=9.655 $Y=0.935
+ $X2=9.49 $Y2=0.935
r270 38 41 6.81649 $w=1.7e-07 $l=1.20208e-07 $layer=LI1_cond $X=10.535 $Y=0.935
+ $X2=10.62 $Y2=0.85
r271 38 39 57.4118 $w=1.68e-07 $l=8.8e-07 $layer=LI1_cond $X=10.535 $Y=0.935
+ $X2=9.655 $Y2=0.935
r272 36 63 27.7273 $w=1.68e-07 $l=4.25e-07 $layer=LI1_cond $X=9.41 $Y=0.425
+ $X2=9.41 $Y2=0.85
r273 35 57 5.16603 $w=1.7e-07 $l=8.5e-08 $layer=LI1_cond $X=8.815 $Y=0.34
+ $X2=8.73 $Y2=0.34
r274 34 36 6.81649 $w=1.7e-07 $l=1.20208e-07 $layer=LI1_cond $X=9.325 $Y=0.34
+ $X2=9.41 $Y2=0.425
r275 34 35 33.2727 $w=1.68e-07 $l=5.1e-07 $layer=LI1_cond $X=9.325 $Y=0.34
+ $X2=8.815 $Y2=0.34
r276 33 58 6.13403 $w=1.7e-07 $l=2.65e-07 $layer=LI1_cond $X=8.73 $Y=1.82
+ $X2=8.73 $Y2=2.085
r277 32 57 1.34256 $w=1.7e-07 $l=8.5e-08 $layer=LI1_cond $X=8.73 $Y=0.425
+ $X2=8.73 $Y2=0.34
r278 32 33 91.0107 $w=1.68e-07 $l=1.395e-06 $layer=LI1_cond $X=8.73 $Y=0.425
+ $X2=8.73 $Y2=1.82
r279 28 58 2.60462 $w=4.24e-07 $l=1.16619e-07 $layer=LI1_cond $X=8.645 $Y=2.01
+ $X2=8.73 $Y2=2.085
r280 28 30 8.34005 $w=3.78e-07 $l=2.75e-07 $layer=LI1_cond $X=8.645 $Y=2.01
+ $X2=8.37 $Y2=2.01
r281 26 57 5.16603 $w=1.7e-07 $l=8.5e-08 $layer=LI1_cond $X=8.645 $Y=0.34
+ $X2=8.73 $Y2=0.34
r282 26 27 42.4064 $w=1.68e-07 $l=6.5e-07 $layer=LI1_cond $X=8.645 $Y=0.34
+ $X2=7.995 $Y2=0.34
r283 22 27 7.76618 $w=1.7e-07 $l=2.03101e-07 $layer=LI1_cond $X=7.83 $Y=0.425
+ $X2=7.995 $Y2=0.34
r284 22 24 3.14303 $w=3.28e-07 $l=9e-08 $layer=LI1_cond $X=7.83 $Y=0.425
+ $X2=7.83 $Y2=0.515
r285 19 21 91.58 $w=1.5e-07 $l=2.85e-07 $layer=POLY_cond $X=13.21 $Y=2.465
+ $X2=13.21 $Y2=2.75
r286 18 19 36.0588 $w=1.8e-07 $l=9e-08 $layer=POLY_cond $X=13.21 $Y=2.375
+ $X2=13.21 $Y2=2.465
r287 18 86 307.081 $w=1.8e-07 $l=7.9e-07 $layer=POLY_cond $X=13.21 $Y=2.375
+ $X2=13.21 $Y2=1.585
r288 15 82 399.957 $w=1.5e-07 $l=7.8e-07 $layer=POLY_cond $X=12.295 $Y=0.69
+ $X2=12.295 $Y2=1.47
r289 10 77 21.2229 $w=1.5e-07 $l=1.65e-07 $layer=POLY_cond $X=9.285 $Y=1.015
+ $X2=9.285 $Y2=1.18
r290 10 12 102.827 $w=1.5e-07 $l=3.2e-07 $layer=POLY_cond $X=9.285 $Y=1.015
+ $X2=9.285 $Y2=0.695
r291 7 76 18.1727 $w=1.5e-07 $l=2.23e-07 $layer=POLY_cond $X=9.155 $Y=2.465
+ $X2=9.155 $Y2=2.242
r292 7 9 91.58 $w=1.5e-07 $l=2.85e-07 $layer=POLY_cond $X=9.155 $Y=2.465
+ $X2=9.155 $Y2=2.75
r293 2 30 600 $w=1.7e-07 $l=2.33238e-07 $layer=licon1_PDIFF $count=1 $X=8.22
+ $Y=1.84 $X2=8.37 $Y2=2.01
r294 1 24 91 $w=1.7e-07 $l=2.03286e-07 $layer=licon1_NDIFF $count=2 $X=7.69
+ $Y=0.37 $X2=7.83 $Y2=0.515
.ends

.subckt PM_SKY130_FD_SC_HS__SEDFXTP_2%A_1340_74# 1 2 11 13 15 17 18 22 24 27 28
+ 30 31 33 36 38 39 42 45 46 49 50 55 56 59 65
c188 59 0 1.50148e-19 $X=9.69 $Y=2.185
c189 56 0 1.22168e-20 $X=7.45 $Y=1.695
c190 46 0 1.48476e-19 $X=12.56 $Y=2.475
c191 27 0 1.39112e-19 $X=9.58 $Y=2.02
r192 65 66 145.28 $w=1.7e-07 $l=1.7e-07 $layer=licon1_POLY $count=1 $X=12.745
+ $Y=1.635 $X2=12.745 $Y2=1.635
r193 62 65 5.12197 $w=2.23e-07 $l=1e-07 $layer=LI1_cond $X=12.645 $Y=1.642
+ $X2=12.745 $Y2=1.642
r194 59 60 145.28 $w=1.7e-07 $l=1.7e-07 $layer=licon1_POLY $count=1 $X=9.69
+ $Y=2.185 $X2=9.69 $Y2=2.185
r195 55 56 72.64 $w=1.7e-07 $l=3.4e-07 $layer=licon1_POLY $count=2 $X=7.45
+ $Y=1.695 $X2=7.45 $Y2=1.695
r196 53 55 8.3904 $w=6.68e-07 $l=4.7e-07 $layer=LI1_cond $X=6.98 $Y=1.865
+ $X2=7.45 $Y2=1.865
r197 48 62 2.38091 $w=1.7e-07 $l=1.13e-07 $layer=LI1_cond $X=12.645 $Y=1.755
+ $X2=12.645 $Y2=1.642
r198 48 49 41.4278 $w=1.68e-07 $l=6.35e-07 $layer=LI1_cond $X=12.645 $Y=1.755
+ $X2=12.645 $Y2=2.39
r199 47 59 12.3706 $w=2.86e-07 $l=3.69188e-07 $layer=LI1_cond $X=9.885 $Y=2.475
+ $X2=9.705 $Y2=2.185
r200 46 49 6.81649 $w=1.7e-07 $l=1.20208e-07 $layer=LI1_cond $X=12.56 $Y=2.475
+ $X2=12.645 $Y2=2.39
r201 46 47 174.519 $w=1.68e-07 $l=2.675e-06 $layer=LI1_cond $X=12.56 $Y=2.475
+ $X2=9.885 $Y2=2.475
r202 45 53 9.03384 $w=1.7e-07 $l=3.35e-07 $layer=LI1_cond $X=6.98 $Y=1.53
+ $X2=6.98 $Y2=1.865
r203 45 50 33.9251 $w=1.68e-07 $l=5.2e-07 $layer=LI1_cond $X=6.98 $Y=1.53
+ $X2=6.98 $Y2=1.01
r204 40 50 9.49412 $w=3.88e-07 $l=1.95e-07 $layer=LI1_cond $X=6.87 $Y=0.815
+ $X2=6.87 $Y2=1.01
r205 40 42 8.86495 $w=3.88e-07 $l=3e-07 $layer=LI1_cond $X=6.87 $Y=0.815
+ $X2=6.87 $Y2=0.515
r206 34 66 38.5562 $w=2.99e-07 $l=1.77059e-07 $layer=POLY_cond $X=12.77 $Y=1.47
+ $X2=12.745 $Y2=1.635
r207 34 36 456.362 $w=1.5e-07 $l=8.9e-07 $layer=POLY_cond $X=12.77 $Y=1.47
+ $X2=12.77 $Y2=0.58
r208 31 66 52.2586 $w=2.99e-07 $l=2.85044e-07 $layer=POLY_cond $X=12.67 $Y=1.885
+ $X2=12.745 $Y2=1.635
r209 31 33 184.767 $w=1.5e-07 $l=5.75e-07 $layer=POLY_cond $X=12.67 $Y=1.885
+ $X2=12.67 $Y2=2.46
r210 28 60 56.6494 $w=3.06e-07 $l=3.15278e-07 $layer=POLY_cond $X=9.605 $Y=2.465
+ $X2=9.68 $Y2=2.185
r211 28 30 91.58 $w=1.5e-07 $l=2.85e-07 $layer=POLY_cond $X=9.605 $Y=2.465
+ $X2=9.605 $Y2=2.75
r212 27 60 38.535 $w=3.06e-07 $l=2.09105e-07 $layer=POLY_cond $X=9.58 $Y=2.02
+ $X2=9.68 $Y2=2.185
r213 26 27 130.755 $w=1.5e-07 $l=2.55e-07 $layer=POLY_cond $X=9.58 $Y=1.765
+ $X2=9.58 $Y2=2.02
r214 25 39 17.0838 $w=1.85e-07 $l=9.08295e-08 $layer=POLY_cond $X=8.68 $Y=1.69
+ $X2=8.605 $Y2=1.655
r215 24 26 26.9307 $w=1.5e-07 $l=1.06066e-07 $layer=POLY_cond $X=9.505 $Y=1.69
+ $X2=9.58 $Y2=1.765
r216 24 25 423.032 $w=1.5e-07 $l=8.25e-07 $layer=POLY_cond $X=9.505 $Y=1.69
+ $X2=8.68 $Y2=1.69
r217 20 39 8.32657 $w=1.5e-07 $l=1.1e-07 $layer=POLY_cond $X=8.605 $Y=1.545
+ $X2=8.605 $Y2=1.655
r218 20 22 435.851 $w=1.5e-07 $l=8.5e-07 $layer=POLY_cond $X=8.605 $Y=1.545
+ $X2=8.605 $Y2=0.695
r219 19 38 14.6817 $w=2.2e-07 $l=7.5e-08 $layer=POLY_cond $X=8.22 $Y=1.655
+ $X2=8.145 $Y2=1.655
r220 18 39 17.0838 $w=1.85e-07 $l=7.5e-08 $layer=POLY_cond $X=8.53 $Y=1.655
+ $X2=8.605 $Y2=1.655
r221 18 19 90.4236 $w=2.2e-07 $l=3.1e-07 $layer=POLY_cond $X=8.53 $Y=1.655
+ $X2=8.22 $Y2=1.655
r222 15 38 10.8713 $w=1.5e-07 $l=1.1e-07 $layer=POLY_cond $X=8.145 $Y=1.765
+ $X2=8.145 $Y2=1.655
r223 15 17 204.047 $w=1.5e-07 $l=6.35e-07 $layer=POLY_cond $X=8.145 $Y=1.765
+ $X2=8.145 $Y2=2.4
r224 14 56 8.65449 $w=2.2e-07 $l=2.06961e-07 $layer=POLY_cond $X=7.69 $Y=1.655
+ $X2=7.487 $Y2=1.647
r225 13 38 14.6817 $w=2.2e-07 $l=7.5e-08 $layer=POLY_cond $X=8.07 $Y=1.655
+ $X2=8.145 $Y2=1.655
r226 13 14 110.842 $w=2.2e-07 $l=3.8e-07 $layer=POLY_cond $X=8.07 $Y=1.655
+ $X2=7.69 $Y2=1.655
r227 9 56 16.755 $w=2.77e-07 $l=1.77088e-07 $layer=POLY_cond $X=7.615 $Y=1.53
+ $X2=7.487 $Y2=1.647
r228 9 11 405.085 $w=1.5e-07 $l=7.9e-07 $layer=POLY_cond $X=7.615 $Y=1.53
+ $X2=7.615 $Y2=0.74
r229 2 53 600 $w=1.7e-07 $l=2.43721e-07 $layer=licon1_PDIFF $count=1 $X=6.83
+ $Y=1.82 $X2=6.98 $Y2=2
r230 1 42 91 $w=1.7e-07 $l=2.03286e-07 $layer=licon1_NDIFF $count=2 $X=6.7
+ $Y=0.37 $X2=6.84 $Y2=0.515
.ends

.subckt PM_SKY130_FD_SC_HS__SEDFXTP_2%A_1979_71# 1 2 9 12 13 15 18 19 20 22 23
+ 25 26 30 33 36 37 43 47 49 53
c106 36 0 1.80054e-19 $X=11.635 $Y=1.355
r107 45 47 8.15508 $w=1.68e-07 $l=1.25e-07 $layer=LI1_cond $X=10.915 $Y=2.135
+ $X2=11.04 $Y2=2.135
r108 41 53 13.1146 $w=3.3e-07 $l=7.5e-08 $layer=POLY_cond $X=10.08 $Y=1.34
+ $X2=10.155 $Y2=1.34
r109 41 50 19.2347 $w=3.3e-07 $l=1.1e-07 $layer=POLY_cond $X=10.08 $Y=1.34
+ $X2=9.97 $Y2=1.34
r110 40 43 8.48463 $w=2.98e-07 $l=1.65e-07 $layer=LI1_cond $X=10.08 $Y=1.34
+ $X2=10.245 $Y2=1.34
r111 40 41 145.28 $w=1.7e-07 $l=1.7e-07 $layer=licon1_POLY $count=1 $X=10.08
+ $Y=1.34 $X2=10.08 $Y2=1.34
r112 36 37 72.64 $w=1.7e-07 $l=3.4e-07 $layer=licon1_POLY $count=2 $X=11.635
+ $Y=1.355 $X2=11.635 $Y2=1.355
r113 34 49 2.53577 $w=3.3e-07 $l=3.22102e-07 $layer=LI1_cond $X=11.125 $Y=1.355
+ $X2=10.875 $Y2=1.19
r114 34 36 17.8105 $w=3.28e-07 $l=5.1e-07 $layer=LI1_cond $X=11.125 $Y=1.355
+ $X2=11.635 $Y2=1.355
r115 33 47 0.716491 $w=1.7e-07 $l=8.5e-08 $layer=LI1_cond $X=11.04 $Y=2.05
+ $X2=11.04 $Y2=2.135
r116 32 49 3.59786 $w=1.7e-07 $l=4.04166e-07 $layer=LI1_cond $X=11.04 $Y=1.52
+ $X2=10.875 $Y2=1.19
r117 32 33 34.5775 $w=1.68e-07 $l=5.3e-07 $layer=LI1_cond $X=11.04 $Y=1.52
+ $X2=11.04 $Y2=2.05
r118 28 49 3.59786 $w=2.5e-07 $l=1.25e-07 $layer=LI1_cond $X=11 $Y=1.19
+ $X2=10.875 $Y2=1.19
r119 28 30 17.5171 $w=2.48e-07 $l=3.8e-07 $layer=LI1_cond $X=11 $Y=1.19 $X2=11
+ $Y2=0.81
r120 26 49 2.53577 $w=1.7e-07 $l=8.5e-08 $layer=LI1_cond $X=10.875 $Y=1.275
+ $X2=10.875 $Y2=1.19
r121 26 43 41.1016 $w=1.68e-07 $l=6.3e-07 $layer=LI1_cond $X=10.875 $Y=1.275
+ $X2=10.245 $Y2=1.275
r122 23 25 134.96 $w=1.5e-07 $l=4.2e-07 $layer=POLY_cond $X=11.935 $Y=1.11
+ $X2=11.935 $Y2=0.69
r123 20 22 184.767 $w=1.5e-07 $l=5.75e-07 $layer=POLY_cond $X=11.71 $Y=1.885
+ $X2=11.71 $Y2=2.46
r124 19 20 36.0588 $w=1.8e-07 $l=9e-08 $layer=POLY_cond $X=11.71 $Y=1.795
+ $X2=11.71 $Y2=1.885
r125 18 23 40.1667 $w=2.7e-07 $l=3.76032e-07 $layer=POLY_cond $X=11.71 $Y=1.39
+ $X2=11.935 $Y2=1.11
r126 18 37 13.3889 $w=2.7e-07 $l=7.5e-08 $layer=POLY_cond $X=11.71 $Y=1.39
+ $X2=11.635 $Y2=1.39
r127 18 19 106.895 $w=1.8e-07 $l=2.75e-07 $layer=POLY_cond $X=11.71 $Y=1.52
+ $X2=11.71 $Y2=1.795
r128 13 15 91.58 $w=1.5e-07 $l=2.85e-07 $layer=POLY_cond $X=10.155 $Y=2.465
+ $X2=10.155 $Y2=2.75
r129 12 13 36.0588 $w=1.8e-07 $l=9e-08 $layer=POLY_cond $X=10.155 $Y=2.375
+ $X2=10.155 $Y2=2.465
r130 11 53 16.9318 $w=1.8e-07 $l=1.65e-07 $layer=POLY_cond $X=10.155 $Y=1.505
+ $X2=10.155 $Y2=1.34
r131 11 12 338.177 $w=1.8e-07 $l=8.7e-07 $layer=POLY_cond $X=10.155 $Y=1.505
+ $X2=10.155 $Y2=2.375
r132 7 50 21.2229 $w=1.5e-07 $l=1.65e-07 $layer=POLY_cond $X=9.97 $Y=1.175
+ $X2=9.97 $Y2=1.34
r133 7 9 246.128 $w=1.5e-07 $l=4.8e-07 $layer=POLY_cond $X=9.97 $Y=1.175
+ $X2=9.97 $Y2=0.695
r134 2 45 600 $w=1.7e-07 $l=2.10357e-07 $layer=licon1_PDIFF $count=1 $X=10.765
+ $Y=1.99 $X2=10.915 $Y2=2.135
r135 1 30 182 $w=1.7e-07 $l=5.05173e-07 $layer=licon1_NDIFF $count=1 $X=10.82
+ $Y=0.37 $X2=10.96 $Y2=0.81
.ends
