* File: sky130_fd_sc_hs__dlrbp_1.pex.spice
* Created: Thu Aug 27 20:41:10 2020
* Program "Calibre xRC"
* Version "v2018.4_34.26"
* Nominal Temperature: 27C
* Circuit Temperature: 27C
* 
.subckt PM_SKY130_FD_SC_HS__DLRBP_1%D 3 5 7 8
r32 11 12 145.28 $w=1.7e-07 $l=1.7e-07 $layer=licon1_POLY $count=1 $X=0.6
+ $Y=1.615 $X2=0.6 $Y2=1.615
r33 8 12 4.1907 $w=3.28e-07 $l=1.2e-07 $layer=LI1_cond $X=0.72 $Y=1.615 $X2=0.6
+ $Y2=1.615
r34 5 11 60.2419 $w=3e-07 $l=3.39853e-07 $layer=POLY_cond $X=0.505 $Y=1.915
+ $X2=0.59 $Y2=1.615
r35 5 7 159.06 $w=1.5e-07 $l=4.95e-07 $layer=POLY_cond $X=0.505 $Y=1.915
+ $X2=0.505 $Y2=2.41
r36 1 11 38.5519 $w=3e-07 $l=2.07123e-07 $layer=POLY_cond $X=0.495 $Y=1.45
+ $X2=0.59 $Y2=1.615
r37 1 3 238.436 $w=1.5e-07 $l=4.65e-07 $layer=POLY_cond $X=0.495 $Y=1.45
+ $X2=0.495 $Y2=0.985
.ends

.subckt PM_SKY130_FD_SC_HS__DLRBP_1%GATE 3 5 7 8
r34 8 11 145.28 $w=1.7e-07 $l=1.7e-07 $layer=licon1_POLY $count=1 $X=1.14
+ $Y=1.615 $X2=1.14 $Y2=1.615
r35 5 11 61.4066 $w=2.86e-07 $l=3.07409e-07 $layer=POLY_cond $X=1.125 $Y=1.915
+ $X2=1.14 $Y2=1.615
r36 5 7 159.06 $w=1.5e-07 $l=4.95e-07 $layer=POLY_cond $X=1.125 $Y=1.915
+ $X2=1.125 $Y2=2.41
r37 1 11 38.6549 $w=2.86e-07 $l=2.03101e-07 $layer=POLY_cond $X=1.055 $Y=1.45
+ $X2=1.14 $Y2=1.615
r38 1 3 287.149 $w=1.5e-07 $l=5.6e-07 $layer=POLY_cond $X=1.055 $Y=1.45
+ $X2=1.055 $Y2=0.89
.ends

.subckt PM_SKY130_FD_SC_HS__DLRBP_1%A_226_104# 1 2 7 11 13 15 16 18 19 20 24 26
+ 27 28 35 36 38 40 41 45 47 49 55
c146 40 0 6.32864e-20 $X=3.74 $Y=0.345
c147 20 0 2.06285e-19 $X=3.225 $Y=1.765
c148 19 0 5.71781e-20 $X=3.725 $Y=1.765
r149 48 55 15.7375 $w=3.3e-07 $l=9e-08 $layer=POLY_cond $X=1.71 $Y=1.585
+ $X2=1.71 $Y2=1.495
r150 47 50 8.64761 $w=3.98e-07 $l=1.65e-07 $layer=LI1_cond $X=1.675 $Y=1.585
+ $X2=1.675 $Y2=1.75
r151 47 49 8.64761 $w=3.98e-07 $l=1.65e-07 $layer=LI1_cond $X=1.675 $Y=1.585
+ $X2=1.675 $Y2=1.42
r152 47 48 145.28 $w=1.7e-07 $l=1.7e-07 $layer=licon1_POLY $count=1 $X=1.71
+ $Y=1.585 $X2=1.71 $Y2=1.585
r153 45 49 9.13369 $w=1.68e-07 $l=1.4e-07 $layer=LI1_cond $X=1.56 $Y=1.28
+ $X2=1.56 $Y2=1.42
r154 41 61 46.2115 $w=3.3e-07 $l=1.65e-07 $layer=POLY_cond $X=3.74 $Y=0.345
+ $X2=3.74 $Y2=0.51
r155 40 41 145.28 $w=1.7e-07 $l=1.7e-07 $layer=licon1_POLY $count=1 $X=3.74
+ $Y=0.345 $X2=3.74 $Y2=0.345
r156 38 53 18.4631 $w=1.68e-07 $l=2.83e-07 $layer=LI1_cond $X=2.905 $Y=0.382
+ $X2=2.905 $Y2=0.665
r157 38 40 33.8954 $w=2.53e-07 $l=7.5e-07 $layer=LI1_cond $X=2.99 $Y=0.382
+ $X2=3.74 $Y2=0.382
r158 37 44 6.07722 $w=1.7e-07 $l=2.49199e-07 $layer=LI1_cond $X=1.645 $Y=0.665
+ $X2=1.415 $Y2=0.625
r159 36 53 0.716491 $w=1.7e-07 $l=8.5e-08 $layer=LI1_cond $X=2.82 $Y=0.665
+ $X2=2.905 $Y2=0.665
r160 36 37 76.6578 $w=1.68e-07 $l=1.175e-06 $layer=LI1_cond $X=2.82 $Y=0.665
+ $X2=1.645 $Y2=0.665
r161 35 50 14.3529 $w=1.68e-07 $l=2.2e-07 $layer=LI1_cond $X=1.56 $Y=1.97
+ $X2=1.56 $Y2=1.75
r162 28 35 7.14316 $w=2.5e-07 $l=1.62019e-07 $layer=LI1_cond $X=1.475 $Y=2.095
+ $X2=1.56 $Y2=1.97
r163 28 30 4.14879 $w=2.48e-07 $l=9e-08 $layer=LI1_cond $X=1.475 $Y=2.095
+ $X2=1.385 $Y2=2.095
r164 27 45 10.9702 $w=4.58e-07 $l=2.3e-07 $layer=LI1_cond $X=1.415 $Y=1.05
+ $X2=1.415 $Y2=1.28
r165 26 44 2.81353 $w=4.6e-07 $l=1.25e-07 $layer=LI1_cond $X=1.415 $Y=0.75
+ $X2=1.415 $Y2=0.625
r166 26 27 7.80051 $w=4.58e-07 $l=3e-07 $layer=LI1_cond $X=1.415 $Y=0.75
+ $X2=1.415 $Y2=1.05
r167 24 61 164.085 $w=1.5e-07 $l=3.2e-07 $layer=POLY_cond $X=3.8 $Y=0.83 $X2=3.8
+ $Y2=0.51
r168 22 24 440.979 $w=1.5e-07 $l=8.6e-07 $layer=POLY_cond $X=3.8 $Y=1.69 $X2=3.8
+ $Y2=0.83
r169 19 22 26.9307 $w=1.5e-07 $l=1.06066e-07 $layer=POLY_cond $X=3.725 $Y=1.765
+ $X2=3.8 $Y2=1.69
r170 19 20 256.383 $w=1.5e-07 $l=5e-07 $layer=POLY_cond $X=3.725 $Y=1.765
+ $X2=3.225 $Y2=1.765
r171 16 20 26.9307 $w=1.5e-07 $l=1.58745e-07 $layer=POLY_cond $X=3.135 $Y=1.885
+ $X2=3.225 $Y2=1.765
r172 16 18 184.767 $w=1.5e-07 $l=5.75e-07 $layer=POLY_cond $X=3.135 $Y=1.885
+ $X2=3.135 $Y2=2.46
r173 13 25 111.364 $w=1.7e-07 $l=3.9e-07 $layer=POLY_cond $X=2.205 $Y=1.885
+ $X2=2.205 $Y2=1.495
r174 13 15 159.06 $w=1.5e-07 $l=4.95e-07 $layer=POLY_cond $X=2.205 $Y=1.885
+ $X2=2.205 $Y2=2.38
r175 9 25 22.0521 $w=1.7e-07 $l=8.21584e-08 $layer=POLY_cond $X=2.19 $Y=1.42
+ $X2=2.205 $Y2=1.495
r176 9 11 287.149 $w=1.5e-07 $l=5.6e-07 $layer=POLY_cond $X=2.19 $Y=1.42
+ $X2=2.19 $Y2=0.86
r177 8 55 21.2229 $w=1.5e-07 $l=1.65e-07 $layer=POLY_cond $X=1.875 $Y=1.495
+ $X2=1.71 $Y2=1.495
r178 7 25 5.80308 $w=1.5e-07 $l=9e-08 $layer=POLY_cond $X=2.115 $Y=1.495
+ $X2=2.205 $Y2=1.495
r179 7 8 123.064 $w=1.5e-07 $l=2.4e-07 $layer=POLY_cond $X=2.115 $Y=1.495
+ $X2=1.875 $Y2=1.495
r180 2 30 600 $w=1.7e-07 $l=2.47083e-07 $layer=licon1_PDIFF $count=1 $X=1.2
+ $Y=1.99 $X2=1.385 $Y2=2.135
r181 1 44 91 $w=1.7e-07 $l=2.83373e-07 $layer=licon1_NDIFF $count=2 $X=1.13
+ $Y=0.52 $X2=1.35 $Y2=0.665
.ends

.subckt PM_SKY130_FD_SC_HS__DLRBP_1%A_27_142# 1 2 7 9 11 14 15 16 17 23 24 25 27
+ 28 30 31 33
c88 33 0 1.36773e-19 $X=2.67 $Y=1.635
c89 27 0 1.27829e-19 $X=2.59 $Y=2.39
c90 16 0 1.91696e-19 $X=2.77 $Y=1.265
r91 33 36 8.46218 $w=3.28e-07 $l=1.65e-07 $layer=LI1_cond $X=2.67 $Y=1.635
+ $X2=2.67 $Y2=1.8
r92 33 34 145.28 $w=1.7e-07 $l=1.7e-07 $layer=licon1_POLY $count=1 $X=2.67
+ $Y=1.635 $X2=2.67 $Y2=1.635
r93 30 31 8.48848 $w=3.48e-07 $l=1.65e-07 $layer=LI1_cond $X=0.27 $Y=2.135
+ $X2=0.27 $Y2=1.97
r94 28 31 45.016 $w=1.68e-07 $l=6.9e-07 $layer=LI1_cond $X=0.18 $Y=1.28 $X2=0.18
+ $Y2=1.97
r95 27 36 38.492 $w=1.68e-07 $l=5.9e-07 $layer=LI1_cond $X=2.59 $Y=2.39 $X2=2.59
+ $Y2=1.8
r96 24 27 6.81649 $w=1.7e-07 $l=1.20208e-07 $layer=LI1_cond $X=2.505 $Y=2.475
+ $X2=2.59 $Y2=2.39
r97 24 25 134.396 $w=1.68e-07 $l=2.06e-06 $layer=LI1_cond $X=2.505 $Y=2.475
+ $X2=0.445 $Y2=2.475
r98 23 25 7.93686 $w=1.7e-07 $l=2.13307e-07 $layer=LI1_cond $X=0.27 $Y=2.39
+ $X2=0.445 $Y2=2.475
r99 22 30 0.329269 $w=3.48e-07 $l=1e-08 $layer=LI1_cond $X=0.27 $Y=2.145
+ $X2=0.27 $Y2=2.135
r100 22 23 8.0671 $w=3.48e-07 $l=2.45e-07 $layer=LI1_cond $X=0.27 $Y=2.145
+ $X2=0.27 $Y2=2.39
r101 17 28 8.81775 $w=3.48e-07 $l=1.75e-07 $layer=LI1_cond $X=0.27 $Y=1.105
+ $X2=0.27 $Y2=1.28
r102 17 19 4.18286 $w=3.5e-07 $l=1.2e-07 $layer=LI1_cond $X=0.27 $Y=1.105
+ $X2=0.27 $Y2=0.985
r103 15 16 63.4211 $w=1.7e-07 $l=1.5e-07 $layer=POLY_cond $X=2.77 $Y=1.115
+ $X2=2.77 $Y2=1.265
r104 14 15 126.927 $w=1.5e-07 $l=3.95e-07 $layer=POLY_cond $X=2.78 $Y=0.72
+ $X2=2.78 $Y2=1.115
r105 11 34 38.5562 $w=2.99e-07 $l=2.05122e-07 $layer=POLY_cond $X=2.76 $Y=1.47
+ $X2=2.67 $Y2=1.635
r106 11 16 105.117 $w=1.5e-07 $l=2.05e-07 $layer=POLY_cond $X=2.76 $Y=1.47
+ $X2=2.76 $Y2=1.265
r107 7 34 52.2586 $w=2.99e-07 $l=2.85044e-07 $layer=POLY_cond $X=2.745 $Y=1.885
+ $X2=2.67 $Y2=1.635
r108 7 9 184.767 $w=1.5e-07 $l=5.75e-07 $layer=POLY_cond $X=2.745 $Y=1.885
+ $X2=2.745 $Y2=2.46
r109 2 30 300 $w=1.7e-07 $l=2.05061e-07 $layer=licon1_PDIFF $count=2 $X=0.135
+ $Y=1.99 $X2=0.28 $Y2=2.135
r110 1 19 182 $w=1.7e-07 $l=3.39853e-07 $layer=licon1_NDIFF $count=1 $X=0.135
+ $Y=0.71 $X2=0.28 $Y2=0.985
.ends

.subckt PM_SKY130_FD_SC_HS__DLRBP_1%A_353_98# 1 2 9 10 12 14 15 16 18 20 21 22
+ 25 31 38 40 44 47
c118 44 0 1.54446e-19 $X=3.23 $Y=1.315
c119 40 0 1.6995e-19 $X=3.2 $Y=1.215
c120 16 0 7.89243e-20 $X=2.215 $Y=1.215
r121 44 47 46.2115 $w=3.3e-07 $l=1.65e-07 $layer=POLY_cond $X=3.23 $Y=1.315
+ $X2=3.23 $Y2=1.15
r122 43 45 8.60763 $w=3.88e-07 $l=1.65e-07 $layer=LI1_cond $X=3.2 $Y=1.315
+ $X2=3.2 $Y2=1.48
r123 43 44 145.28 $w=1.7e-07 $l=1.7e-07 $layer=licon1_POLY $count=1 $X=3.23
+ $Y=1.315 $X2=3.23 $Y2=1.315
r124 40 43 2.95498 $w=3.88e-07 $l=1e-07 $layer=LI1_cond $X=3.2 $Y=1.215 $X2=3.2
+ $Y2=1.315
r125 36 38 9.7861 $w=1.68e-07 $l=1.5e-07 $layer=LI1_cond $X=2.94 $Y=2.055
+ $X2=3.09 $Y2=2.055
r126 34 35 6.60399 $w=3.51e-07 $l=1.9e-07 $layer=LI1_cond $X=1.94 $Y=1.11
+ $X2=2.13 $Y2=1.11
r127 29 31 6.1738 $w=2.78e-07 $l=1.5e-07 $layer=LI1_cond $X=1.98 $Y=2.08
+ $X2=2.13 $Y2=2.08
r128 25 26 145.28 $w=1.7e-07 $l=1.7e-07 $layer=licon1_POLY $count=1 $X=3.85
+ $Y=2.215 $X2=3.85 $Y2=2.215
r129 23 25 24.0965 $w=3.28e-07 $l=6.9e-07 $layer=LI1_cond $X=3.85 $Y=2.905
+ $X2=3.85 $Y2=2.215
r130 21 23 7.76618 $w=1.7e-07 $l=2.03101e-07 $layer=LI1_cond $X=3.685 $Y=2.99
+ $X2=3.85 $Y2=2.905
r131 21 22 43.0588 $w=1.68e-07 $l=6.6e-07 $layer=LI1_cond $X=3.685 $Y=2.99
+ $X2=3.025 $Y2=2.99
r132 20 38 0.716491 $w=1.7e-07 $l=8.5e-08 $layer=LI1_cond $X=3.09 $Y=1.97
+ $X2=3.09 $Y2=2.055
r133 20 45 31.9679 $w=1.68e-07 $l=4.9e-07 $layer=LI1_cond $X=3.09 $Y=1.97
+ $X2=3.09 $Y2=1.48
r134 18 22 6.81649 $w=1.7e-07 $l=1.20208e-07 $layer=LI1_cond $X=2.94 $Y=2.905
+ $X2=3.025 $Y2=2.99
r135 17 36 0.716491 $w=1.7e-07 $l=8.5e-08 $layer=LI1_cond $X=2.94 $Y=2.14
+ $X2=2.94 $Y2=2.055
r136 17 18 49.9091 $w=1.68e-07 $l=7.65e-07 $layer=LI1_cond $X=2.94 $Y=2.14
+ $X2=2.94 $Y2=2.905
r137 16 35 6.20757 $w=3.51e-07 $l=1.41244e-07 $layer=LI1_cond $X=2.215 $Y=1.215
+ $X2=2.13 $Y2=1.11
r138 15 40 5.6248 $w=1.7e-07 $l=1.95e-07 $layer=LI1_cond $X=3.005 $Y=1.215
+ $X2=3.2 $Y2=1.215
r139 15 16 51.5401 $w=1.68e-07 $l=7.9e-07 $layer=LI1_cond $X=3.005 $Y=1.215
+ $X2=2.215 $Y2=1.215
r140 14 31 3.65648 $w=1.7e-07 $l=1.4e-07 $layer=LI1_cond $X=2.13 $Y=1.94
+ $X2=2.13 $Y2=2.08
r141 13 35 4.99104 $w=1.7e-07 $l=1.9e-07 $layer=LI1_cond $X=2.13 $Y=1.3 $X2=2.13
+ $Y2=1.11
r142 13 14 41.754 $w=1.68e-07 $l=6.4e-07 $layer=LI1_cond $X=2.13 $Y=1.3 $X2=2.13
+ $Y2=1.94
r143 10 26 50.1894 $w=3.66e-07 $l=3.02903e-07 $layer=POLY_cond $X=3.69 $Y=2.465
+ $X2=3.807 $Y2=2.215
r144 10 12 91.58 $w=1.5e-07 $l=2.85e-07 $layer=POLY_cond $X=3.69 $Y=2.465
+ $X2=3.69 $Y2=2.75
r145 9 47 138.173 $w=1.5e-07 $l=4.3e-07 $layer=POLY_cond $X=3.14 $Y=0.72
+ $X2=3.14 $Y2=1.15
r146 2 29 600 $w=1.7e-07 $l=2.20907e-07 $layer=licon1_PDIFF $count=1 $X=1.835
+ $Y=1.96 $X2=1.98 $Y2=2.12
r147 1 34 182 $w=1.7e-07 $l=6.76868e-07 $layer=licon1_NDIFF $count=1 $X=1.765
+ $Y=0.49 $X2=1.94 $Y2=1.085
.ends

.subckt PM_SKY130_FD_SC_HS__DLRBP_1%A_823_98# 1 2 7 9 11 12 14 17 19 21 22 26 29
+ 30 32 35 37 38 40 47 53 55 59 62 63 64
c146 64 0 4.3223e-20 $X=5.332 $Y=1.72
c147 55 0 7.27803e-20 $X=6.005 $Y=1.805
c148 7 0 6.32864e-20 $X=4.19 $Y=1.115
r149 63 66 4.34938 $w=4.93e-07 $l=1.8e-07 $layer=LI1_cond $X=5.332 $Y=1.805
+ $X2=5.332 $Y2=1.985
r150 63 64 7.55351 $w=4.93e-07 $l=8.5e-08 $layer=LI1_cond $X=5.332 $Y=1.805
+ $X2=5.332 $Y2=1.72
r151 62 64 38.492 $w=1.68e-07 $l=5.9e-07 $layer=LI1_cond $X=5.17 $Y=1.13
+ $X2=5.17 $Y2=1.72
r152 60 70 14.5084 $w=2.99e-07 $l=9e-08 $layer=POLY_cond $X=6.17 $Y=1.515
+ $X2=6.17 $Y2=1.425
r153 59 60 145.28 $w=1.7e-07 $l=1.7e-07 $layer=licon1_POLY $count=1 $X=6.17
+ $Y=1.515 $X2=6.17 $Y2=1.515
r154 57 59 7.26926 $w=3.23e-07 $l=2.05e-07 $layer=LI1_cond $X=6.167 $Y=1.72
+ $X2=6.167 $Y2=1.515
r155 56 63 7.09362 $w=1.7e-07 $l=2.48e-07 $layer=LI1_cond $X=5.58 $Y=1.805
+ $X2=5.332 $Y2=1.805
r156 55 57 7.72402 $w=1.7e-07 $l=2.00035e-07 $layer=LI1_cond $X=6.005 $Y=1.805
+ $X2=6.167 $Y2=1.72
r157 55 56 27.7273 $w=1.68e-07 $l=4.25e-07 $layer=LI1_cond $X=6.005 $Y=1.805
+ $X2=5.58 $Y2=1.805
r158 53 68 2.7938 $w=3.28e-07 $l=8e-08 $layer=LI1_cond $X=5.415 $Y=2.4 $X2=5.415
+ $Y2=2.32
r159 45 62 10.8817 $w=4.53e-07 $l=2.27e-07 $layer=LI1_cond $X=5.027 $Y=0.903
+ $X2=5.027 $Y2=1.13
r160 45 47 10.1995 $w=4.53e-07 $l=3.88e-07 $layer=LI1_cond $X=5.027 $Y=0.903
+ $X2=5.027 $Y2=0.515
r161 42 43 145.28 $w=1.7e-07 $l=1.7e-07 $layer=licon1_POLY $count=1 $X=4.39
+ $Y=2.155 $X2=4.39 $Y2=2.155
r162 40 68 5.31902 $w=4.93e-07 $l=1.65e-07 $layer=LI1_cond $X=5.332 $Y=2.155
+ $X2=5.332 $Y2=2.32
r163 40 66 4.10774 $w=4.93e-07 $l=1.7e-07 $layer=LI1_cond $X=5.332 $Y=2.155
+ $X2=5.332 $Y2=1.985
r164 40 42 24.2711 $w=3.28e-07 $l=6.95e-07 $layer=LI1_cond $X=5.085 $Y=2.155
+ $X2=4.39 $Y2=2.155
r165 38 39 25.2026 $w=1.53e-07 $l=8e-08 $layer=POLY_cond $X=7.07 $Y=1.967
+ $X2=7.15 $Y2=1.967
r166 33 35 56.4043 $w=1.5e-07 $l=1.1e-07 $layer=POLY_cond $X=4.19 $Y=1.19
+ $X2=4.3 $Y2=1.19
r167 30 39 3.30671 $w=1.5e-07 $l=7.8e-08 $layer=POLY_cond $X=7.15 $Y=2.045
+ $X2=7.15 $Y2=1.967
r168 30 32 159.06 $w=1.5e-07 $l=4.95e-07 $layer=POLY_cond $X=7.15 $Y=2.045
+ $X2=7.15 $Y2=2.54
r169 29 38 3.30671 $w=1.5e-07 $l=7.7e-08 $layer=POLY_cond $X=7.07 $Y=1.89
+ $X2=7.07 $Y2=1.967
r170 28 37 20.4101 $w=1.5e-07 $l=7.5e-08 $layer=POLY_cond $X=7.07 $Y=1.5
+ $X2=7.07 $Y2=1.425
r171 28 29 199.979 $w=1.5e-07 $l=3.9e-07 $layer=POLY_cond $X=7.07 $Y=1.5
+ $X2=7.07 $Y2=1.89
r172 24 37 20.4101 $w=1.5e-07 $l=7.5e-08 $layer=POLY_cond $X=7.07 $Y=1.35
+ $X2=7.07 $Y2=1.425
r173 24 26 361.5 $w=1.5e-07 $l=7.05e-07 $layer=POLY_cond $X=7.07 $Y=1.35
+ $X2=7.07 $Y2=0.645
r174 23 70 18.89 $w=1.5e-07 $l=1.65e-07 $layer=POLY_cond $X=6.335 $Y=1.425
+ $X2=6.17 $Y2=1.425
r175 22 37 5.30422 $w=1.5e-07 $l=7.5e-08 $layer=POLY_cond $X=6.995 $Y=1.425
+ $X2=7.07 $Y2=1.425
r176 22 23 338.426 $w=1.5e-07 $l=6.6e-07 $layer=POLY_cond $X=6.995 $Y=1.425
+ $X2=6.335 $Y2=1.425
r177 19 60 52.2586 $w=2.99e-07 $l=2.64575e-07 $layer=POLY_cond $X=6.14 $Y=1.765
+ $X2=6.17 $Y2=1.515
r178 19 21 204.047 $w=1.5e-07 $l=6.35e-07 $layer=POLY_cond $X=6.14 $Y=1.765
+ $X2=6.14 $Y2=2.4
r179 15 70 24.0479 $w=2.99e-07 $l=1.21861e-07 $layer=POLY_cond $X=6.08 $Y=1.35
+ $X2=6.17 $Y2=1.425
r180 15 17 312.787 $w=1.5e-07 $l=6.1e-07 $layer=POLY_cond $X=6.08 $Y=1.35
+ $X2=6.08 $Y2=0.74
r181 12 43 63.2868 $w=2.84e-07 $l=3.31738e-07 $layer=POLY_cond $X=4.345 $Y=2.465
+ $X2=4.39 $Y2=2.155
r182 12 14 91.58 $w=1.5e-07 $l=2.85e-07 $layer=POLY_cond $X=4.345 $Y=2.465
+ $X2=4.345 $Y2=2.75
r183 11 43 38.6777 $w=2.84e-07 $l=2.05122e-07 $layer=POLY_cond $X=4.3 $Y=1.99
+ $X2=4.39 $Y2=2.155
r184 10 35 2.83073 $w=1.5e-07 $l=7.5e-08 $layer=POLY_cond $X=4.3 $Y=1.265
+ $X2=4.3 $Y2=1.19
r185 10 11 371.755 $w=1.5e-07 $l=7.25e-07 $layer=POLY_cond $X=4.3 $Y=1.265
+ $X2=4.3 $Y2=1.99
r186 7 33 2.83073 $w=1.5e-07 $l=7.5e-08 $layer=POLY_cond $X=4.19 $Y=1.115
+ $X2=4.19 $Y2=1.19
r187 7 9 91.58 $w=1.5e-07 $l=2.85e-07 $layer=POLY_cond $X=4.19 $Y=1.115 $X2=4.19
+ $Y2=0.83
r188 2 66 600 $w=1.7e-07 $l=2.36643e-07 $layer=licon1_PDIFF $count=1 $X=5.24
+ $Y=1.84 $X2=5.415 $Y2=1.985
r189 2 53 300 $w=1.7e-07 $l=6.41561e-07 $layer=licon1_PDIFF $count=2 $X=5.24
+ $Y=1.84 $X2=5.415 $Y2=2.4
r190 1 47 91 $w=1.7e-07 $l=2.05061e-07 $layer=licon1_NDIFF $count=2 $X=4.82
+ $Y=0.37 $X2=4.965 $Y2=0.515
.ends

.subckt PM_SKY130_FD_SC_HS__DLRBP_1%A_642_392# 1 2 7 9 12 14 15 16 23 24 25 27
+ 28 34
c89 28 0 4.70974e-20 $X=3.355 $Y=2.405
c90 25 0 1.43227e-19 $X=3.75 $Y=1.735
c91 15 0 2.63065e-20 $X=5.165 $Y=1.557
c92 7 0 4.64738e-20 $X=5.165 $Y=1.765
r93 34 37 7.68295 $w=3.28e-07 $l=2.2e-07 $layer=LI1_cond $X=4.75 $Y=1.515
+ $X2=4.75 $Y2=1.735
r94 34 35 145.28 $w=1.7e-07 $l=1.7e-07 $layer=licon1_POLY $count=1 $X=4.75
+ $Y=1.515 $X2=4.75 $Y2=1.515
r95 30 32 15.3316 $w=1.68e-07 $l=2.35e-07 $layer=LI1_cond $X=3.43 $Y=1.735
+ $X2=3.665 $Y2=1.735
r96 27 28 8.46025 $w=3.18e-07 $l=1.65e-07 $layer=LI1_cond $X=3.355 $Y=2.57
+ $X2=3.355 $Y2=2.405
r97 25 32 5.54545 $w=1.68e-07 $l=8.5e-08 $layer=LI1_cond $X=3.75 $Y=1.735
+ $X2=3.665 $Y2=1.735
r98 24 37 4.62375 $w=1.7e-07 $l=1.65e-07 $layer=LI1_cond $X=4.585 $Y=1.735
+ $X2=4.75 $Y2=1.735
r99 24 25 54.4759 $w=1.68e-07 $l=8.35e-07 $layer=LI1_cond $X=4.585 $Y=1.735
+ $X2=3.75 $Y2=1.735
r100 23 32 0.716491 $w=1.7e-07 $l=8.5e-08 $layer=LI1_cond $X=3.665 $Y=1.65
+ $X2=3.665 $Y2=1.735
r101 22 23 45.016 $w=1.68e-07 $l=6.9e-07 $layer=LI1_cond $X=3.665 $Y=0.96
+ $X2=3.665 $Y2=1.65
r102 20 30 0.716491 $w=1.7e-07 $l=8.5e-08 $layer=LI1_cond $X=3.43 $Y=1.82
+ $X2=3.43 $Y2=1.735
r103 20 28 38.1658 $w=1.68e-07 $l=5.85e-07 $layer=LI1_cond $X=3.43 $Y=1.82
+ $X2=3.43 $Y2=2.405
r104 16 22 7.14316 $w=2.5e-07 $l=1.62019e-07 $layer=LI1_cond $X=3.58 $Y=0.835
+ $X2=3.665 $Y2=0.96
r105 16 18 5.07075 $w=2.48e-07 $l=1.1e-07 $layer=LI1_cond $X=3.58 $Y=0.835
+ $X2=3.47 $Y2=0.835
r106 14 35 56.8299 $w=3.3e-07 $l=3.25e-07 $layer=POLY_cond $X=5.075 $Y=1.515
+ $X2=4.75 $Y2=1.515
r107 14 15 5.03009 $w=3.3e-07 $l=1.08995e-07 $layer=POLY_cond $X=5.075 $Y=1.515
+ $X2=5.165 $Y2=1.557
r108 10 15 37.0704 $w=1.5e-07 $l=2.14369e-07 $layer=POLY_cond $X=5.18 $Y=1.35
+ $X2=5.165 $Y2=1.557
r109 10 12 312.787 $w=1.5e-07 $l=6.1e-07 $layer=POLY_cond $X=5.18 $Y=1.35
+ $X2=5.18 $Y2=0.74
r110 7 15 37.0704 $w=1.5e-07 $l=2.08e-07 $layer=POLY_cond $X=5.165 $Y=1.765
+ $X2=5.165 $Y2=1.557
r111 7 9 204.047 $w=1.5e-07 $l=6.35e-07 $layer=POLY_cond $X=5.165 $Y=1.765
+ $X2=5.165 $Y2=2.4
r112 2 27 600 $w=1.7e-07 $l=6.85347e-07 $layer=licon1_PDIFF $count=1 $X=3.21
+ $Y=1.96 $X2=3.37 $Y2=2.57
r113 1 18 182 $w=1.7e-07 $l=5.88855e-07 $layer=licon1_NDIFF $count=1 $X=3.215
+ $Y=0.4 $X2=3.47 $Y2=0.875
.ends

.subckt PM_SKY130_FD_SC_HS__DLRBP_1%RESET_B 1 3 4 6 7 11
c32 1 0 2.2426e-19 $X=5.57 $Y=1.22
r33 10 11 145.28 $w=1.7e-07 $l=1.7e-07 $layer=licon1_POLY $count=1 $X=5.63
+ $Y=1.385 $X2=5.63 $Y2=1.385
r34 7 11 3.42618 $w=3.68e-07 $l=1.1e-07 $layer=LI1_cond $X=5.52 $Y=1.365
+ $X2=5.63 $Y2=1.365
r35 4 10 77.2841 $w=2.7e-07 $l=3.84968e-07 $layer=POLY_cond $X=5.64 $Y=1.765
+ $X2=5.63 $Y2=1.385
r36 4 6 204.047 $w=1.5e-07 $l=6.35e-07 $layer=POLY_cond $X=5.64 $Y=1.765
+ $X2=5.64 $Y2=2.4
r37 1 10 38.9026 $w=2.7e-07 $l=1.92678e-07 $layer=POLY_cond $X=5.57 $Y=1.22
+ $X2=5.63 $Y2=1.385
r38 1 3 154.24 $w=1.5e-07 $l=4.8e-07 $layer=POLY_cond $X=5.57 $Y=1.22 $X2=5.57
+ $Y2=0.74
.ends

.subckt PM_SKY130_FD_SC_HS__DLRBP_1%A_1342_74# 1 2 9 11 13 15 18 22 26 29
c58 18 0 6.46507e-20 $X=6.925 $Y=2.265
r59 26 28 9.87261 $w=3.28e-07 $l=2.15e-07 $layer=LI1_cond $X=6.855 $Y=0.625
+ $X2=6.855 $Y2=0.84
r60 22 23 145.28 $w=1.7e-07 $l=1.7e-07 $layer=licon1_POLY $count=1 $X=7.55
+ $Y=1.485 $X2=7.55 $Y2=1.485
r61 20 29 0.806278 $w=3.3e-07 $l=9e-08 $layer=LI1_cond $X=7.02 $Y=1.485 $X2=6.93
+ $Y2=1.485
r62 20 22 18.5089 $w=3.28e-07 $l=5.3e-07 $layer=LI1_cond $X=7.02 $Y=1.485
+ $X2=7.55 $Y2=1.485
r63 16 29 8.43672 $w=1.75e-07 $l=1.67481e-07 $layer=LI1_cond $X=6.925 $Y=1.65
+ $X2=6.93 $Y2=1.485
r64 16 18 40.123 $w=1.68e-07 $l=6.15e-07 $layer=LI1_cond $X=6.925 $Y=1.65
+ $X2=6.925 $Y2=2.265
r65 15 29 8.43672 $w=1.75e-07 $l=1.65e-07 $layer=LI1_cond $X=6.93 $Y=1.32
+ $X2=6.93 $Y2=1.485
r66 15 28 29.5758 $w=1.78e-07 $l=4.8e-07 $layer=LI1_cond $X=6.93 $Y=1.32
+ $X2=6.93 $Y2=0.84
r67 11 23 56.2427 $w=3.13e-07 $l=3.2187e-07 $layer=POLY_cond $X=7.655 $Y=1.765
+ $X2=7.565 $Y2=1.485
r68 11 13 204.047 $w=1.5e-07 $l=6.35e-07 $layer=POLY_cond $X=7.655 $Y=1.765
+ $X2=7.655 $Y2=2.4
r69 7 23 38.5334 $w=3.13e-07 $l=1.72337e-07 $layer=POLY_cond $X=7.58 $Y=1.32
+ $X2=7.565 $Y2=1.485
r70 7 9 297.404 $w=1.5e-07 $l=5.8e-07 $layer=POLY_cond $X=7.58 $Y=1.32 $X2=7.58
+ $Y2=0.74
r71 2 18 300 $w=1.7e-07 $l=2.05061e-07 $layer=licon1_PDIFF $count=2 $X=6.78
+ $Y=2.12 $X2=6.925 $Y2=2.265
r72 1 26 182 $w=1.7e-07 $l=3.19374e-07 $layer=licon1_NDIFF $count=1 $X=6.71
+ $Y=0.37 $X2=6.855 $Y2=0.625
.ends

.subckt PM_SKY130_FD_SC_HS__DLRBP_1%VPWR 1 2 3 4 5 20 24 28 32 34 36 44 49 54 61
+ 62 65 68 71 78 81
r87 81 82 9.3 $w=1.7e-07 $l=1.7e-07 $layer=mcon $count=1 $X=7.44 $Y=3.33
+ $X2=7.44 $Y2=3.33
r88 78 79 6.2 $w=1.7e-07 $l=2.55e-07 $layer=mcon $count=1 $X=6 $Y=3.33 $X2=6
+ $Y2=3.33
r89 68 69 4.65 $w=1.7e-07 $l=3.4e-07 $layer=mcon $count=2 $X=2.64 $Y=3.33
+ $X2=2.64 $Y2=3.33
r90 65 66 4.65 $w=1.7e-07 $l=3.4e-07 $layer=mcon $count=2 $X=0.72 $Y=3.33
+ $X2=0.72 $Y2=3.33
r91 62 82 0.133793 $w=4.9e-07 $l=4.8e-07 $layer=MET1_cond $X=7.92 $Y=3.33
+ $X2=7.44 $Y2=3.33
r92 61 62 9.3 $w=1.7e-07 $l=1.7e-07 $layer=mcon $count=1 $X=7.92 $Y=3.33
+ $X2=7.92 $Y2=3.33
r93 59 81 8.61065 $w=1.7e-07 $l=1.65e-07 $layer=LI1_cond $X=7.54 $Y=3.33
+ $X2=7.375 $Y2=3.33
r94 59 61 24.7914 $w=1.68e-07 $l=3.8e-07 $layer=LI1_cond $X=7.54 $Y=3.33
+ $X2=7.92 $Y2=3.33
r95 58 82 0.133793 $w=4.9e-07 $l=4.8e-07 $layer=MET1_cond $X=6.96 $Y=3.33
+ $X2=7.44 $Y2=3.33
r96 58 79 0.267585 $w=4.9e-07 $l=9.6e-07 $layer=MET1_cond $X=6.96 $Y=3.33 $X2=6
+ $Y2=3.33
r97 57 58 6.2 $w=1.7e-07 $l=2.55e-07 $layer=mcon $count=1 $X=6.96 $Y=3.33
+ $X2=6.96 $Y2=3.33
r98 55 78 7.02821 $w=1.7e-07 $l=1.25e-07 $layer=LI1_cond $X=6.03 $Y=3.33
+ $X2=5.905 $Y2=3.33
r99 55 57 60.6738 $w=1.68e-07 $l=9.3e-07 $layer=LI1_cond $X=6.03 $Y=3.33
+ $X2=6.96 $Y2=3.33
r100 54 81 8.61065 $w=1.7e-07 $l=1.65e-07 $layer=LI1_cond $X=7.21 $Y=3.33
+ $X2=7.375 $Y2=3.33
r101 54 57 16.3102 $w=1.68e-07 $l=2.5e-07 $layer=LI1_cond $X=7.21 $Y=3.33
+ $X2=6.96 $Y2=3.33
r102 53 79 0.133793 $w=4.9e-07 $l=4.8e-07 $layer=MET1_cond $X=5.52 $Y=3.33 $X2=6
+ $Y2=3.33
r103 53 75 0.267585 $w=4.9e-07 $l=9.6e-07 $layer=MET1_cond $X=5.52 $Y=3.33
+ $X2=4.56 $Y2=3.33
r104 52 53 4.65 $w=1.7e-07 $l=3.4e-07 $layer=mcon $count=2 $X=5.52 $Y=3.33
+ $X2=5.52 $Y2=3.33
r105 50 52 28.7059 $w=1.68e-07 $l=4.4e-07 $layer=LI1_cond $X=5.08 $Y=3.33
+ $X2=5.52 $Y2=3.33
r106 49 78 7.02821 $w=1.7e-07 $l=1.25e-07 $layer=LI1_cond $X=5.78 $Y=3.33
+ $X2=5.905 $Y2=3.33
r107 49 52 16.9626 $w=1.68e-07 $l=2.6e-07 $layer=LI1_cond $X=5.78 $Y=3.33
+ $X2=5.52 $Y2=3.33
r108 45 68 8.70163 $w=1.7e-07 $l=1.68e-07 $layer=LI1_cond $X=2.685 $Y=3.33
+ $X2=2.517 $Y2=3.33
r109 45 47 91.0107 $w=1.68e-07 $l=1.395e-06 $layer=LI1_cond $X=2.685 $Y=3.33
+ $X2=4.08 $Y2=3.33
r110 44 50 9.08255 $w=1.7e-07 $l=3.38e-07 $layer=LI1_cond $X=4.742 $Y=3.33
+ $X2=5.08 $Y2=3.33
r111 44 75 9.3 $w=1.7e-07 $l=1.7e-07 $layer=mcon $count=1 $X=4.56 $Y=3.33
+ $X2=4.56 $Y2=3.33
r112 44 71 9.12564 $w=6.73e-07 $l=5.15e-07 $layer=LI1_cond $X=4.742 $Y=3.33
+ $X2=4.742 $Y2=2.815
r113 44 47 21.2032 $w=1.68e-07 $l=3.25e-07 $layer=LI1_cond $X=4.405 $Y=3.33
+ $X2=4.08 $Y2=3.33
r114 43 69 0.133793 $w=4.9e-07 $l=4.8e-07 $layer=MET1_cond $X=2.16 $Y=3.33
+ $X2=2.64 $Y2=3.33
r115 42 43 6.2 $w=1.7e-07 $l=2.55e-07 $layer=mcon $count=1 $X=2.16 $Y=3.33
+ $X2=2.16 $Y2=3.33
r116 40 43 0.267585 $w=4.9e-07 $l=9.6e-07 $layer=MET1_cond $X=1.2 $Y=3.33
+ $X2=2.16 $Y2=3.33
r117 40 66 0.133793 $w=4.9e-07 $l=4.8e-07 $layer=MET1_cond $X=1.2 $Y=3.33
+ $X2=0.72 $Y2=3.33
r118 39 42 62.631 $w=1.68e-07 $l=9.6e-07 $layer=LI1_cond $X=1.2 $Y=3.33 $X2=2.16
+ $Y2=3.33
r119 39 40 6.2 $w=1.7e-07 $l=2.55e-07 $layer=mcon $count=1 $X=1.2 $Y=3.33
+ $X2=1.2 $Y2=3.33
r120 37 65 8.61065 $w=1.7e-07 $l=1.65e-07 $layer=LI1_cond $X=0.98 $Y=3.33
+ $X2=0.815 $Y2=3.33
r121 37 39 14.3529 $w=1.68e-07 $l=2.2e-07 $layer=LI1_cond $X=0.98 $Y=3.33
+ $X2=1.2 $Y2=3.33
r122 36 68 8.70163 $w=1.7e-07 $l=1.67e-07 $layer=LI1_cond $X=2.35 $Y=3.33
+ $X2=2.517 $Y2=3.33
r123 36 42 12.3957 $w=1.68e-07 $l=1.9e-07 $layer=LI1_cond $X=2.35 $Y=3.33
+ $X2=2.16 $Y2=3.33
r124 34 75 0.133793 $w=4.9e-07 $l=4.8e-07 $layer=MET1_cond $X=4.08 $Y=3.33
+ $X2=4.56 $Y2=3.33
r125 34 69 0.401378 $w=4.9e-07 $l=1.44e-06 $layer=MET1_cond $X=4.08 $Y=3.33
+ $X2=2.64 $Y2=3.33
r126 34 47 4.65 $w=1.7e-07 $l=3.4e-07 $layer=mcon $count=2 $X=4.08 $Y=3.33
+ $X2=4.08 $Y2=3.33
r127 30 81 0.89609 $w=3.3e-07 $l=8.5e-08 $layer=LI1_cond $X=7.375 $Y=3.245
+ $X2=7.375 $Y2=3.33
r128 30 32 34.2241 $w=3.28e-07 $l=9.8e-07 $layer=LI1_cond $X=7.375 $Y=3.245
+ $X2=7.375 $Y2=2.265
r129 26 78 0.00168595 $w=2.5e-07 $l=8.5e-08 $layer=LI1_cond $X=5.905 $Y=3.245
+ $X2=5.905 $Y2=3.33
r130 26 28 47.0197 $w=2.48e-07 $l=1.02e-06 $layer=LI1_cond $X=5.905 $Y=3.245
+ $X2=5.905 $Y2=2.225
r131 22 68 0.942324 $w=3.35e-07 $l=8.5e-08 $layer=LI1_cond $X=2.517 $Y=3.245
+ $X2=2.517 $Y2=3.33
r132 22 24 14.7926 $w=3.33e-07 $l=4.3e-07 $layer=LI1_cond $X=2.517 $Y=3.245
+ $X2=2.517 $Y2=2.815
r133 18 65 0.89609 $w=3.3e-07 $l=8.5e-08 $layer=LI1_cond $X=0.815 $Y=3.245
+ $X2=0.815 $Y2=3.33
r134 18 20 12.2229 $w=3.28e-07 $l=3.5e-07 $layer=LI1_cond $X=0.815 $Y=3.245
+ $X2=0.815 $Y2=2.895
r135 5 32 300 $w=1.7e-07 $l=2.10357e-07 $layer=licon1_PDIFF $count=2 $X=7.225
+ $Y=2.12 $X2=7.375 $Y2=2.265
r136 4 28 300 $w=1.7e-07 $l=4.53845e-07 $layer=licon1_PDIFF $count=2 $X=5.715
+ $Y=1.84 $X2=5.865 $Y2=2.225
r137 3 71 300 $w=1.7e-07 $l=6.17373e-07 $layer=licon1_PDIFF $count=2 $X=4.42
+ $Y=2.54 $X2=4.915 $Y2=2.815
r138 2 24 600 $w=1.7e-07 $l=9.65376e-07 $layer=licon1_PDIFF $count=1 $X=2.28
+ $Y=1.96 $X2=2.515 $Y2=2.815
r139 1 20 600 $w=1.7e-07 $l=1.01573e-06 $layer=licon1_PDIFF $count=1 $X=0.58
+ $Y=1.99 $X2=0.815 $Y2=2.895
.ends

.subckt PM_SKY130_FD_SC_HS__DLRBP_1%Q 1 2 9 15 19 20 21 22
c38 9 0 1.81037e-19 $X=6.295 $Y=0.515
r39 21 22 9.41594 $w=4.68e-07 $l=3.7e-07 $layer=LI1_cond $X=6.435 $Y=2.405
+ $X2=6.435 $Y2=2.775
r40 19 20 9.33757 $w=4.68e-07 $l=1.65e-07 $layer=LI1_cond $X=6.435 $Y=2.225
+ $X2=6.435 $Y2=2.06
r41 17 21 2.79933 $w=4.68e-07 $l=1.1e-07 $layer=LI1_cond $X=6.435 $Y=2.295
+ $X2=6.435 $Y2=2.405
r42 17 19 1.78139 $w=4.68e-07 $l=7e-08 $layer=LI1_cond $X=6.435 $Y=2.295
+ $X2=6.435 $Y2=2.225
r43 11 15 0.716491 $w=1.7e-07 $l=8.5e-08 $layer=LI1_cond $X=6.585 $Y=1.18
+ $X2=6.585 $Y2=1.095
r44 11 20 57.4118 $w=1.68e-07 $l=8.8e-07 $layer=LI1_cond $X=6.585 $Y=1.18
+ $X2=6.585 $Y2=2.06
r45 7 15 18.9198 $w=1.68e-07 $l=2.9e-07 $layer=LI1_cond $X=6.295 $Y=1.095
+ $X2=6.585 $Y2=1.095
r46 7 9 17.2866 $w=3.28e-07 $l=4.95e-07 $layer=LI1_cond $X=6.295 $Y=1.01
+ $X2=6.295 $Y2=0.515
r47 2 19 300 $w=1.7e-07 $l=4.53845e-07 $layer=licon1_PDIFF $count=2 $X=6.215
+ $Y=1.84 $X2=6.365 $Y2=2.225
r48 1 9 91 $w=1.7e-07 $l=2.03286e-07 $layer=licon1_NDIFF $count=2 $X=6.155
+ $Y=0.37 $X2=6.295 $Y2=0.515
.ends

.subckt PM_SKY130_FD_SC_HS__DLRBP_1%Q_N 1 2 9 14 15 16 17 28
r22 21 28 1.90404 $w=3.43e-07 $l=5.7e-08 $layer=LI1_cond $X=7.882 $Y=0.868
+ $X2=7.882 $Y2=0.925
r23 17 30 6.34154 $w=3.43e-07 $l=1.01e-07 $layer=LI1_cond $X=7.882 $Y=0.939
+ $X2=7.882 $Y2=1.04
r24 17 28 0.467658 $w=3.43e-07 $l=1.4e-08 $layer=LI1_cond $X=7.882 $Y=0.939
+ $X2=7.882 $Y2=0.925
r25 17 21 0.467658 $w=3.43e-07 $l=1.4e-08 $layer=LI1_cond $X=7.882 $Y=0.854
+ $X2=7.882 $Y2=0.868
r26 16 17 11.324 $w=3.43e-07 $l=3.39e-07 $layer=LI1_cond $X=7.882 $Y=0.515
+ $X2=7.882 $Y2=0.854
r27 15 30 50.8877 $w=1.68e-07 $l=7.8e-07 $layer=LI1_cond $X=7.97 $Y=1.82
+ $X2=7.97 $Y2=1.04
r28 14 15 8.47192 $w=3.38e-07 $l=1.65e-07 $layer=LI1_cond $X=7.885 $Y=1.985
+ $X2=7.885 $Y2=1.82
r29 7 14 0.169477 $w=3.38e-07 $l=5e-09 $layer=LI1_cond $X=7.885 $Y=1.99
+ $X2=7.885 $Y2=1.985
r30 7 9 27.9637 $w=3.38e-07 $l=8.25e-07 $layer=LI1_cond $X=7.885 $Y=1.99
+ $X2=7.885 $Y2=2.815
r31 2 14 400 $w=1.7e-07 $l=2.10357e-07 $layer=licon1_PDIFF $count=1 $X=7.73
+ $Y=1.84 $X2=7.88 $Y2=1.985
r32 2 9 400 $w=1.7e-07 $l=1.04732e-06 $layer=licon1_PDIFF $count=1 $X=7.73
+ $Y=1.84 $X2=7.88 $Y2=2.815
r33 1 16 91 $w=1.7e-07 $l=2.83373e-07 $layer=licon1_NDIFF $count=2 $X=7.655
+ $Y=0.37 $X2=7.875 $Y2=0.515
.ends

.subckt PM_SKY130_FD_SC_HS__DLRBP_1%VGND 1 2 3 4 5 18 24 28 32 37 38 39 41 46 54
+ 63 72 73 76 80 86 89
r94 89 90 9.3 $w=1.7e-07 $l=1.7e-07 $layer=mcon $count=1 $X=7.44 $Y=0 $X2=7.44
+ $Y2=0
r95 86 87 6.2 $w=1.7e-07 $l=2.55e-07 $layer=mcon $count=1 $X=4.56 $Y=0 $X2=4.56
+ $Y2=0
r96 80 83 11.3498 $w=3.28e-07 $l=3.25e-07 $layer=LI1_cond $X=2.485 $Y=0
+ $X2=2.485 $Y2=0.325
r97 80 81 4.65 $w=1.7e-07 $l=3.4e-07 $layer=mcon $count=2 $X=2.64 $Y=0 $X2=2.64
+ $Y2=0
r98 76 77 9.3 $w=1.7e-07 $l=1.7e-07 $layer=mcon $count=1 $X=0.72 $Y=0 $X2=0.72
+ $Y2=0
r99 73 90 0.133793 $w=4.9e-07 $l=4.8e-07 $layer=MET1_cond $X=7.92 $Y=0 $X2=7.44
+ $Y2=0
r100 72 73 9.3 $w=1.7e-07 $l=1.7e-07 $layer=mcon $count=1 $X=7.92 $Y=0 $X2=7.92
+ $Y2=0
r101 70 89 8.61065 $w=1.7e-07 $l=1.65e-07 $layer=LI1_cond $X=7.53 $Y=0 $X2=7.365
+ $Y2=0
r102 70 72 25.4438 $w=1.68e-07 $l=3.9e-07 $layer=LI1_cond $X=7.53 $Y=0 $X2=7.92
+ $Y2=0
r103 69 90 0.133793 $w=4.9e-07 $l=4.8e-07 $layer=MET1_cond $X=6.96 $Y=0 $X2=7.44
+ $Y2=0
r104 68 69 6.2 $w=1.7e-07 $l=2.55e-07 $layer=mcon $count=1 $X=6.96 $Y=0 $X2=6.96
+ $Y2=0
r105 66 69 0.267585 $w=4.9e-07 $l=9.6e-07 $layer=MET1_cond $X=6 $Y=0 $X2=6.96
+ $Y2=0
r106 65 68 62.631 $w=1.68e-07 $l=9.6e-07 $layer=LI1_cond $X=6 $Y=0 $X2=6.96
+ $Y2=0
r107 65 66 6.2 $w=1.7e-07 $l=2.55e-07 $layer=mcon $count=1 $X=6 $Y=0 $X2=6 $Y2=0
r108 63 89 8.61065 $w=1.7e-07 $l=1.65e-07 $layer=LI1_cond $X=7.2 $Y=0 $X2=7.365
+ $Y2=0
r109 63 68 15.6578 $w=1.68e-07 $l=2.4e-07 $layer=LI1_cond $X=7.2 $Y=0 $X2=6.96
+ $Y2=0
r110 62 66 0.133793 $w=4.9e-07 $l=4.8e-07 $layer=MET1_cond $X=5.52 $Y=0 $X2=6
+ $Y2=0
r111 62 87 0.267585 $w=4.9e-07 $l=9.6e-07 $layer=MET1_cond $X=5.52 $Y=0 $X2=4.56
+ $Y2=0
r112 61 62 6.2 $w=1.7e-07 $l=2.55e-07 $layer=mcon $count=1 $X=5.52 $Y=0 $X2=5.52
+ $Y2=0
r113 59 86 8.61065 $w=1.7e-07 $l=1.65e-07 $layer=LI1_cond $X=4.57 $Y=0 $X2=4.405
+ $Y2=0
r114 59 61 61.9786 $w=1.68e-07 $l=9.5e-07 $layer=LI1_cond $X=4.57 $Y=0 $X2=5.52
+ $Y2=0
r115 55 80 4.62375 $w=1.7e-07 $l=1.65e-07 $layer=LI1_cond $X=2.65 $Y=0 $X2=2.485
+ $Y2=0
r116 55 57 93.2941 $w=1.68e-07 $l=1.43e-06 $layer=LI1_cond $X=2.65 $Y=0 $X2=4.08
+ $Y2=0
r117 54 86 8.61065 $w=1.7e-07 $l=1.65e-07 $layer=LI1_cond $X=4.24 $Y=0 $X2=4.405
+ $Y2=0
r118 54 57 10.4385 $w=1.68e-07 $l=1.6e-07 $layer=LI1_cond $X=4.24 $Y=0 $X2=4.08
+ $Y2=0
r119 53 81 0.133793 $w=4.9e-07 $l=4.8e-07 $layer=MET1_cond $X=2.16 $Y=0 $X2=2.64
+ $Y2=0
r120 52 53 6.2 $w=1.7e-07 $l=2.55e-07 $layer=mcon $count=1 $X=2.16 $Y=0 $X2=2.16
+ $Y2=0
r121 50 53 0.267585 $w=4.9e-07 $l=9.6e-07 $layer=MET1_cond $X=1.2 $Y=0 $X2=2.16
+ $Y2=0
r122 50 77 0.133793 $w=4.9e-07 $l=4.8e-07 $layer=MET1_cond $X=1.2 $Y=0 $X2=0.72
+ $Y2=0
r123 49 52 62.631 $w=1.68e-07 $l=9.6e-07 $layer=LI1_cond $X=1.2 $Y=0 $X2=2.16
+ $Y2=0
r124 49 50 6.2 $w=1.7e-07 $l=2.55e-07 $layer=mcon $count=1 $X=1.2 $Y=0 $X2=1.2
+ $Y2=0
r125 47 76 8.61065 $w=1.7e-07 $l=1.65e-07 $layer=LI1_cond $X=0.955 $Y=0 $X2=0.79
+ $Y2=0
r126 47 49 15.984 $w=1.68e-07 $l=2.45e-07 $layer=LI1_cond $X=0.955 $Y=0 $X2=1.2
+ $Y2=0
r127 46 80 4.62375 $w=1.7e-07 $l=1.65e-07 $layer=LI1_cond $X=2.32 $Y=0 $X2=2.485
+ $Y2=0
r128 46 52 10.4385 $w=1.68e-07 $l=1.6e-07 $layer=LI1_cond $X=2.32 $Y=0 $X2=2.16
+ $Y2=0
r129 44 77 0.133793 $w=4.9e-07 $l=4.8e-07 $layer=MET1_cond $X=0.24 $Y=0 $X2=0.72
+ $Y2=0
r130 43 44 9.3 $w=1.7e-07 $l=1.7e-07 $layer=mcon $count=1 $X=0.24 $Y=0 $X2=0.24
+ $Y2=0
r131 41 76 8.61065 $w=1.7e-07 $l=1.65e-07 $layer=LI1_cond $X=0.625 $Y=0 $X2=0.79
+ $Y2=0
r132 41 43 25.1176 $w=1.68e-07 $l=3.85e-07 $layer=LI1_cond $X=0.625 $Y=0
+ $X2=0.24 $Y2=0
r133 39 87 0.133793 $w=4.9e-07 $l=4.8e-07 $layer=MET1_cond $X=4.08 $Y=0 $X2=4.56
+ $Y2=0
r134 39 81 0.401378 $w=4.9e-07 $l=1.44e-06 $layer=MET1_cond $X=4.08 $Y=0
+ $X2=2.64 $Y2=0
r135 39 57 4.65 $w=1.7e-07 $l=3.4e-07 $layer=mcon $count=2 $X=4.08 $Y=0 $X2=4.08
+ $Y2=0