* File: sky130_fd_sc_hs__sdfxtp_4.pex.spice
* Created: Thu Aug 27 21:10:23 2020
* Program "Calibre xRC"
* Version "v2018.4_34.26"
* Nominal Temperature: 27C
* Circuit Temperature: 27C
* 
.subckt PM_SKY130_FD_SC_HS__SDFXTP_4%A_36_74# 1 2 9 11 13 14 15 17 20 22 26 27
+ 32 40
c95 40 0 1.57125e-19 $X=0.915 $Y=1.825
c96 15 0 6.03146e-20 $X=2.03 $Y=1.975
c97 14 0 1.67026e-19 $X=0.965 $Y=1.69
r98 38 40 10.1561 $w=5.98e-07 $l=1.65e-07 $layer=LI1_cond $X=0.75 $Y=1.825
+ $X2=0.915 $Y2=1.825
r99 38 39 145.28 $w=1.7e-07 $l=1.7e-07 $layer=licon1_POLY $count=1 $X=0.75
+ $Y=1.69 $X2=0.75 $Y2=1.69
r100 36 38 8.5719 $w=5.98e-07 $l=4.3e-07 $layer=LI1_cond $X=0.32 $Y=1.825
+ $X2=0.75 $Y2=1.825
r101 34 36 2.9902 $w=5.98e-07 $l=1.5e-07 $layer=LI1_cond $X=0.17 $Y=1.825
+ $X2=0.32 $Y2=1.825
r102 29 32 4.10641 $w=4.33e-07 $l=1.55e-07 $layer=LI1_cond $X=0.17 $Y=0.567
+ $X2=0.325 $Y2=0.567
r103 26 27 72.64 $w=1.7e-07 $l=3.4e-07 $layer=licon1_POLY $count=2 $X=2.03
+ $Y=1.635 $X2=2.03 $Y2=1.635
r104 24 26 11.1752 $w=3.28e-07 $l=3.2e-07 $layer=LI1_cond $X=2.03 $Y=1.955
+ $X2=2.03 $Y2=1.635
r105 22 24 7.76618 $w=1.7e-07 $l=2.03101e-07 $layer=LI1_cond $X=1.865 $Y=2.04
+ $X2=2.03 $Y2=1.955
r106 22 40 61.9786 $w=1.68e-07 $l=9.5e-07 $layer=LI1_cond $X=1.865 $Y=2.04
+ $X2=0.915 $Y2=2.04
r107 18 36 2.16985 $w=4.7e-07 $l=3e-07 $layer=LI1_cond $X=0.32 $Y=2.125 $X2=0.32
+ $Y2=1.825
r108 18 20 8.65248 $w=4.68e-07 $l=3.4e-07 $layer=LI1_cond $X=0.32 $Y=2.125
+ $X2=0.32 $Y2=2.465
r109 17 34 8.31678 $w=1.7e-07 $l=3e-07 $layer=LI1_cond $X=0.17 $Y=1.525 $X2=0.17
+ $Y2=1.825
r110 16 29 6.29128 $w=1.7e-07 $l=2.18e-07 $layer=LI1_cond $X=0.17 $Y=0.785
+ $X2=0.17 $Y2=0.567
r111 16 17 48.2781 $w=1.68e-07 $l=7.4e-07 $layer=LI1_cond $X=0.17 $Y=0.785
+ $X2=0.17 $Y2=1.525
r112 15 27 59.4528 $w=3.3e-07 $l=3.4e-07 $layer=POLY_cond $X=2.03 $Y=1.975
+ $X2=2.03 $Y2=1.635
r113 14 39 37.5952 $w=3.3e-07 $l=2.15e-07 $layer=POLY_cond $X=0.965 $Y=1.69
+ $X2=0.75 $Y2=1.69
r114 11 15 48.0221 $w=2.71e-07 $l=2.91633e-07 $layer=POLY_cond $X=1.985 $Y=2.245
+ $X2=2.03 $Y2=1.975
r115 11 13 126.927 $w=1.5e-07 $l=3.95e-07 $layer=POLY_cond $X=1.985 $Y=2.245
+ $X2=1.985 $Y2=2.64
r116 7 14 32.1775 $w=3.3e-07 $l=1.98997e-07 $layer=POLY_cond $X=1.04 $Y=1.525
+ $X2=0.965 $Y2=1.69
r117 7 9 484.564 $w=1.5e-07 $l=9.45e-07 $layer=POLY_cond $X=1.04 $Y=1.525
+ $X2=1.04 $Y2=0.58
r118 2 20 300 $w=1.7e-07 $l=2.05061e-07 $layer=licon1_PDIFF $count=2 $X=0.245
+ $Y=2.32 $X2=0.39 $Y2=2.465
r119 1 32 182 $w=1.7e-07 $l=2.57488e-07 $layer=licon1_NDIFF $count=1 $X=0.18
+ $Y=0.37 $X2=0.325 $Y2=0.565
.ends

.subckt PM_SKY130_FD_SC_HS__SDFXTP_4%SCE 2 3 4 7 9 11 12 14 16 17 19 20 26 29 33
+ 35 38
r81 32 35 27.1035 $w=3.3e-07 $l=1.55e-07 $layer=POLY_cond $X=2.03 $Y=1.065
+ $X2=2.185 $Y2=1.065
r82 32 33 145.28 $w=1.7e-07 $l=1.7e-07 $layer=licon1_POLY $count=1 $X=2.03
+ $Y=1.065 $X2=2.03 $Y2=1.065
r83 26 33 8.81321 $w=4.73e-07 $l=3.5e-07 $layer=LI1_cond $X=1.68 $Y=1.047
+ $X2=2.03 $Y2=1.047
r84 26 38 4.02225 $w=4.73e-07 $l=1.15e-07 $layer=LI1_cond $X=1.68 $Y=1.047
+ $X2=1.565 $Y2=1.047
r85 24 29 9.41406 $w=2.56e-07 $l=5e-08 $layer=POLY_cond $X=0.59 $Y=1.12 $X2=0.54
+ $Y2=1.12
r86 23 38 34.0495 $w=3.28e-07 $l=9.75e-07 $layer=LI1_cond $X=0.59 $Y=1.12
+ $X2=1.565 $Y2=1.12
r87 23 24 145.28 $w=1.7e-07 $l=1.7e-07 $layer=licon1_POLY $count=1 $X=0.59
+ $Y=1.12 $X2=0.59 $Y2=1.12
r88 17 35 21.2229 $w=1.5e-07 $l=1.65e-07 $layer=POLY_cond $X=2.185 $Y=0.9
+ $X2=2.185 $Y2=1.065
r89 17 19 102.827 $w=1.5e-07 $l=3.2e-07 $layer=POLY_cond $X=2.185 $Y=0.9
+ $X2=2.185 $Y2=0.58
r90 14 16 126.927 $w=1.5e-07 $l=3.95e-07 $layer=POLY_cond $X=1.115 $Y=2.245
+ $X2=1.115 $Y2=2.64
r91 13 20 20.4101 $w=1.5e-07 $l=7.5e-08 $layer=POLY_cond $X=0.69 $Y=2.17
+ $X2=0.615 $Y2=2.17
r92 12 14 26.9307 $w=1.5e-07 $l=1.06066e-07 $layer=POLY_cond $X=1.04 $Y=2.17
+ $X2=1.115 $Y2=2.245
r93 12 13 179.468 $w=1.5e-07 $l=3.5e-07 $layer=POLY_cond $X=1.04 $Y=2.17
+ $X2=0.69 $Y2=2.17
r94 9 20 5.30422 $w=1.5e-07 $l=7.5e-08 $layer=POLY_cond $X=0.615 $Y=2.245
+ $X2=0.615 $Y2=2.17
r95 9 11 126.927 $w=1.5e-07 $l=3.95e-07 $layer=POLY_cond $X=0.615 $Y=2.245
+ $X2=0.615 $Y2=2.64
r96 5 29 15.2686 $w=1.5e-07 $l=1.65e-07 $layer=POLY_cond $X=0.54 $Y=0.955
+ $X2=0.54 $Y2=1.12
r97 5 7 192.287 $w=1.5e-07 $l=3.75e-07 $layer=POLY_cond $X=0.54 $Y=0.955
+ $X2=0.54 $Y2=0.58
r98 3 20 20.4101 $w=1.5e-07 $l=7.5e-08 $layer=POLY_cond $X=0.54 $Y=2.17
+ $X2=0.615 $Y2=2.17
r99 3 4 99.9894 $w=1.5e-07 $l=1.95e-07 $layer=POLY_cond $X=0.54 $Y=2.17
+ $X2=0.345 $Y2=2.17
r100 2 4 26.9307 $w=1.5e-07 $l=1.06066e-07 $layer=POLY_cond $X=0.27 $Y=2.095
+ $X2=0.345 $Y2=2.17
r101 1 29 50.8359 $w=2.56e-07 $l=3.4271e-07 $layer=POLY_cond $X=0.27 $Y=1.285
+ $X2=0.54 $Y2=1.12
r102 1 2 415.34 $w=1.5e-07 $l=8.1e-07 $layer=POLY_cond $X=0.27 $Y=1.285 $X2=0.27
+ $Y2=2.095
.ends

.subckt PM_SKY130_FD_SC_HS__SDFXTP_4%D 3 6 7 9 10 13 14
c42 13 0 1.57125e-19 $X=1.49 $Y=1.62
r43 13 16 40.6903 $w=3.3e-07 $l=1.65e-07 $layer=POLY_cond $X=1.49 $Y=1.62
+ $X2=1.49 $Y2=1.785
r44 13 15 46.2115 $w=3.3e-07 $l=1.65e-07 $layer=POLY_cond $X=1.49 $Y=1.62
+ $X2=1.49 $Y2=1.455
r45 13 14 145.28 $w=1.7e-07 $l=1.7e-07 $layer=licon1_POLY $count=1 $X=1.49
+ $Y=1.62 $X2=1.49 $Y2=1.62
r46 10 14 10.1275 $w=3.28e-07 $l=2.9e-07 $layer=LI1_cond $X=1.2 $Y=1.62 $X2=1.49
+ $Y2=1.62
r47 7 9 126.927 $w=1.5e-07 $l=3.95e-07 $layer=POLY_cond $X=1.535 $Y=2.245
+ $X2=1.535 $Y2=2.64
r48 6 7 36.0588 $w=1.8e-07 $l=9e-08 $layer=POLY_cond $X=1.535 $Y=2.155 $X2=1.535
+ $Y2=2.245
r49 6 16 143.823 $w=1.8e-07 $l=3.7e-07 $layer=POLY_cond $X=1.535 $Y=2.155
+ $X2=1.535 $Y2=1.785
r50 3 15 448.67 $w=1.5e-07 $l=8.75e-07 $layer=POLY_cond $X=1.43 $Y=0.58 $X2=1.43
+ $Y2=1.455
.ends

.subckt PM_SKY130_FD_SC_HS__SDFXTP_4%SCD 2 3 5 8 10 11 15
c48 10 0 6.03146e-20 $X=2.64 $Y=1.665
c49 8 0 2.97692e-19 $X=2.575 $Y=0.58
r50 15 18 40.6903 $w=3.3e-07 $l=1.65e-07 $layer=POLY_cond $X=2.6 $Y=1.775
+ $X2=2.6 $Y2=1.94
r51 15 17 46.2115 $w=3.3e-07 $l=1.65e-07 $layer=POLY_cond $X=2.6 $Y=1.775
+ $X2=2.6 $Y2=1.61
r52 15 16 145.28 $w=1.7e-07 $l=1.7e-07 $layer=licon1_POLY $count=1 $X=2.6
+ $Y=1.775 $X2=2.6 $Y2=1.775
r53 11 16 9.07985 $w=3.28e-07 $l=2.6e-07 $layer=LI1_cond $X=2.6 $Y=2.035 $X2=2.6
+ $Y2=1.775
r54 10 16 3.84148 $w=3.28e-07 $l=1.1e-07 $layer=LI1_cond $X=2.6 $Y=1.665 $X2=2.6
+ $Y2=1.775
r55 8 17 528.149 $w=1.5e-07 $l=1.03e-06 $layer=POLY_cond $X=2.575 $Y=0.58
+ $X2=2.575 $Y2=1.61
r56 3 5 126.927 $w=1.5e-07 $l=3.95e-07 $layer=POLY_cond $X=2.525 $Y=2.245
+ $X2=2.525 $Y2=2.64
r57 2 3 36.0588 $w=1.8e-07 $l=9e-08 $layer=POLY_cond $X=2.525 $Y=2.155 $X2=2.525
+ $Y2=2.245
r58 2 18 83.5726 $w=1.8e-07 $l=2.15e-07 $layer=POLY_cond $X=2.525 $Y=2.155
+ $X2=2.525 $Y2=1.94
.ends

.subckt PM_SKY130_FD_SC_HS__SDFXTP_4%CLK 1 3 4 6 7
c41 7 0 9.81103e-20 $X=3.6 $Y=1.295
c42 4 0 6.58899e-20 $X=3.265 $Y=1.765
r43 10 11 145.28 $w=1.7e-07 $l=1.7e-07 $layer=licon1_POLY $count=1 $X=3.44
+ $Y=1.385 $X2=3.44 $Y2=1.385
r44 7 11 4.98354 $w=3.68e-07 $l=1.6e-07 $layer=LI1_cond $X=3.6 $Y=1.365 $X2=3.44
+ $Y2=1.365
r45 4 10 66.5442 $w=3.79e-07 $l=3.9807e-07 $layer=POLY_cond $X=3.265 $Y=1.765
+ $X2=3.302 $Y2=1.385
r46 4 6 204.047 $w=1.5e-07 $l=6.35e-07 $layer=POLY_cond $X=3.265 $Y=1.765
+ $X2=3.265 $Y2=2.4
r47 1 10 39.2012 $w=3.79e-07 $l=2.98302e-07 $layer=POLY_cond $X=3.075 $Y=1.22
+ $X2=3.302 $Y2=1.385
r48 1 3 154.24 $w=1.5e-07 $l=4.8e-07 $layer=POLY_cond $X=3.075 $Y=1.22 $X2=3.075
+ $Y2=0.74
.ends

.subckt PM_SKY130_FD_SC_HS__SDFXTP_4%A_828_74# 1 2 7 9 10 12 15 18 19 21 24 26
+ 27 29 30 33 36 37 39 42 43 44 46 47 54 55 56 59 62 63 67
c198 67 0 7.63119e-20 $X=8.7 $Y=1.55
c199 59 0 1.06925e-20 $X=7.8 $Y=1.22
c200 54 0 6.02966e-20 $X=5.24 $Y=2.205
c201 33 0 1.815e-19 $X=5.86 $Y=0.77
c202 29 0 1.72289e-19 $X=5.18 $Y=2.04
r203 67 80 40.6903 $w=3.3e-07 $l=1.65e-07 $layer=POLY_cond $X=8.7 $Y=1.55
+ $X2=8.7 $Y2=1.715
r204 66 67 145.28 $w=1.7e-07 $l=1.7e-07 $layer=licon1_POLY $count=1 $X=8.7
+ $Y=1.55 $X2=8.7 $Y2=1.55
r205 63 66 8.36451 $w=3.08e-07 $l=2.25e-07 $layer=LI1_cond $X=8.69 $Y=1.325
+ $X2=8.69 $Y2=1.55
r206 59 76 46.2115 $w=3.3e-07 $l=1.65e-07 $layer=POLY_cond $X=7.8 $Y=1.22
+ $X2=7.8 $Y2=1.055
r207 58 59 145.28 $w=1.7e-07 $l=1.7e-07 $layer=licon1_POLY $count=1 $X=7.8
+ $Y=1.22 $X2=7.8 $Y2=1.22
r208 54 70 51.947 $w=2.83e-07 $l=3.05e-07 $layer=POLY_cond $X=5.24 $Y=2.247
+ $X2=5.545 $Y2=2.247
r209 53 54 145.28 $w=1.7e-07 $l=1.7e-07 $layer=licon1_POLY $count=1 $X=5.24
+ $Y=2.205 $X2=5.24 $Y2=2.205
r210 47 63 4.25403 $w=1.7e-07 $l=1.55e-07 $layer=LI1_cond $X=8.535 $Y=1.325
+ $X2=8.69 $Y2=1.325
r211 47 62 26.7487 $w=1.68e-07 $l=4.1e-07 $layer=LI1_cond $X=8.535 $Y=1.325
+ $X2=8.125 $Y2=1.325
r212 46 62 5.902 $w=3.53e-07 $l=8.5e-08 $layer=LI1_cond $X=8.04 $Y=1.232
+ $X2=8.125 $Y2=1.232
r213 46 58 7.79116 $w=3.53e-07 $l=2.4e-07 $layer=LI1_cond $X=8.04 $Y=1.232
+ $X2=7.8 $Y2=1.232
r214 45 46 38.492 $w=1.68e-07 $l=5.9e-07 $layer=LI1_cond $X=8.04 $Y=0.465
+ $X2=8.04 $Y2=1.055
r215 43 45 6.81649 $w=1.7e-07 $l=1.20208e-07 $layer=LI1_cond $X=7.955 $Y=0.38
+ $X2=8.04 $Y2=0.465
r216 43 44 51.8663 $w=1.68e-07 $l=7.95e-07 $layer=LI1_cond $X=7.955 $Y=0.38
+ $X2=7.16 $Y2=0.38
r217 41 44 6.81649 $w=1.7e-07 $l=1.20208e-07 $layer=LI1_cond $X=7.075 $Y=0.465
+ $X2=7.16 $Y2=0.38
r218 41 42 19.8984 $w=1.68e-07 $l=3.05e-07 $layer=LI1_cond $X=7.075 $Y=0.465
+ $X2=7.075 $Y2=0.77
r219 40 56 2.53056 $w=1.7e-07 $l=1.5e-07 $layer=LI1_cond $X=6.075 $Y=0.855
+ $X2=5.925 $Y2=0.855
r220 39 42 6.81649 $w=1.7e-07 $l=1.20208e-07 $layer=LI1_cond $X=6.99 $Y=0.855
+ $X2=7.075 $Y2=0.77
r221 39 40 59.6952 $w=1.68e-07 $l=9.15e-07 $layer=LI1_cond $X=6.99 $Y=0.855
+ $X2=6.075 $Y2=0.855
r222 37 71 30.6007 $w=3.3e-07 $l=1.75e-07 $layer=POLY_cond $X=5.91 $Y=1.195
+ $X2=5.735 $Y2=1.195
r223 36 37 145.28 $w=1.7e-07 $l=1.7e-07 $layer=licon1_POLY $count=1 $X=5.91
+ $Y=1.195 $X2=5.91 $Y2=1.195
r224 34 56 3.91525 $w=2.35e-07 $l=8.5e-08 $layer=LI1_cond $X=5.925 $Y=0.94
+ $X2=5.925 $Y2=0.855
r225 34 36 9.79577 $w=2.98e-07 $l=2.55e-07 $layer=LI1_cond $X=5.925 $Y=0.94
+ $X2=5.925 $Y2=1.195
r226 33 56 3.91525 $w=2.35e-07 $l=1.12916e-07 $layer=LI1_cond $X=5.86 $Y=0.77
+ $X2=5.925 $Y2=0.855
r227 32 33 22.508 $w=1.68e-07 $l=3.45e-07 $layer=LI1_cond $X=5.86 $Y=0.425
+ $X2=5.86 $Y2=0.77
r228 31 55 5.16603 $w=1.7e-07 $l=8.5e-08 $layer=LI1_cond $X=5.265 $Y=0.34
+ $X2=5.18 $Y2=0.34
r229 30 32 6.81649 $w=1.7e-07 $l=1.20208e-07 $layer=LI1_cond $X=5.775 $Y=0.34
+ $X2=5.86 $Y2=0.425
r230 30 31 33.2727 $w=1.68e-07 $l=5.1e-07 $layer=LI1_cond $X=5.775 $Y=0.34
+ $X2=5.265 $Y2=0.34
r231 29 53 2.26625 $w=3.23e-07 $l=6e-08 $layer=LI1_cond $X=5.18 $Y=2.095
+ $X2=5.24 $Y2=2.095
r232 29 50 15.8638 $w=3.23e-07 $l=4.2e-07 $layer=LI1_cond $X=5.18 $Y=2.095
+ $X2=4.76 $Y2=2.095
r233 28 55 1.34256 $w=1.7e-07 $l=8.5e-08 $layer=LI1_cond $X=5.18 $Y=0.425
+ $X2=5.18 $Y2=0.34
r234 28 29 105.364 $w=1.68e-07 $l=1.615e-06 $layer=LI1_cond $X=5.18 $Y=0.425
+ $X2=5.18 $Y2=2.04
r235 26 55 5.16603 $w=1.7e-07 $l=8.5e-08 $layer=LI1_cond $X=5.095 $Y=0.34
+ $X2=5.18 $Y2=0.34
r236 26 27 42.4064 $w=1.68e-07 $l=6.5e-07 $layer=LI1_cond $X=5.095 $Y=0.34
+ $X2=4.445 $Y2=0.34
r237 22 27 7.14316 $w=1.7e-07 $l=1.62019e-07 $layer=LI1_cond $X=4.32 $Y=0.425
+ $X2=4.445 $Y2=0.34
r238 22 24 4.14879 $w=2.48e-07 $l=9e-08 $layer=LI1_cond $X=4.32 $Y=0.425
+ $X2=4.32 $Y2=0.515
r239 19 21 91.58 $w=1.5e-07 $l=2.85e-07 $layer=POLY_cond $X=8.745 $Y=2.305
+ $X2=8.745 $Y2=2.59
r240 18 19 36.0588 $w=1.8e-07 $l=9e-08 $layer=POLY_cond $X=8.745 $Y=2.215
+ $X2=8.745 $Y2=2.305
r241 18 80 194.355 $w=1.8e-07 $l=5e-07 $layer=POLY_cond $X=8.745 $Y=2.215
+ $X2=8.745 $Y2=1.715
r242 15 76 210.234 $w=1.5e-07 $l=4.1e-07 $layer=POLY_cond $X=7.86 $Y=0.645
+ $X2=7.86 $Y2=1.055
r243 10 71 21.2229 $w=1.5e-07 $l=1.65e-07 $layer=POLY_cond $X=5.735 $Y=1.03
+ $X2=5.735 $Y2=1.195
r244 10 12 102.827 $w=1.5e-07 $l=3.2e-07 $layer=POLY_cond $X=5.735 $Y=1.03
+ $X2=5.735 $Y2=0.71
r245 7 70 17.601 $w=1.5e-07 $l=2.08e-07 $layer=POLY_cond $X=5.545 $Y=2.455
+ $X2=5.545 $Y2=2.247
r246 7 9 91.58 $w=1.5e-07 $l=2.85e-07 $layer=POLY_cond $X=5.545 $Y=2.455
+ $X2=5.545 $Y2=2.74
r247 2 50 600 $w=1.7e-07 $l=2.43721e-07 $layer=licon1_PDIFF $count=1 $X=4.61
+ $Y=1.84 $X2=4.76 $Y2=2.02
r248 1 24 91 $w=1.7e-07 $l=2.03286e-07 $layer=licon1_NDIFF $count=2 $X=4.14
+ $Y=0.37 $X2=4.28 $Y2=0.515
.ends

.subckt PM_SKY130_FD_SC_HS__SDFXTP_4%A_630_74# 1 2 9 11 13 15 16 20 22 25 26 28
+ 29 31 33 34 35 38 40 42 46 49 51 52 53 57 60 61 63 64 65 67 68 73 78 81
c204 78 0 6.02966e-20 $X=6.19 $Y=2.115
c205 65 0 1.71447e-19 $X=6.275 $Y=2.6
c206 53 0 6.58899e-20 $X=3.855 $Y=1.905
c207 49 0 1.99582e-19 $X=3.29 $Y=0.515
c208 42 0 1.68504e-19 $X=5.055 $Y=1.555
c209 38 0 8.3449e-20 $X=8.755 $Y=0.58
c210 34 0 1.81826e-20 $X=8.68 $Y=1.07
c211 20 0 1.815e-19 $X=5.055 $Y=0.71
c212 13 0 1.72289e-19 $X=4.535 $Y=1.765
r213 81 84 8.46218 $w=3.28e-07 $l=1.65e-07 $layer=LI1_cond $X=7.935 $Y=1.79
+ $X2=7.935 $Y2=1.955
r214 81 82 145.28 $w=1.7e-07 $l=1.7e-07 $layer=licon1_POLY $count=1 $X=7.935
+ $Y=1.79 $X2=7.935 $Y2=1.79
r215 75 78 4.1907 $w=3.28e-07 $l=1.2e-07 $layer=LI1_cond $X=6.07 $Y=2.115
+ $X2=6.19 $Y2=2.115
r216 75 76 145.28 $w=1.7e-07 $l=1.7e-07 $layer=licon1_POLY $count=1 $X=6.07
+ $Y=2.115 $X2=6.07 $Y2=2.115
r217 68 71 4.01609 $w=3.28e-07 $l=1.15e-07 $layer=LI1_cond $X=3.49 $Y=1.905
+ $X2=3.49 $Y2=2.02
r218 67 84 36.5348 $w=1.68e-07 $l=5.6e-07 $layer=LI1_cond $X=8.015 $Y=2.515
+ $X2=8.015 $Y2=1.955
r219 64 67 6.81649 $w=1.7e-07 $l=1.20208e-07 $layer=LI1_cond $X=7.93 $Y=2.6
+ $X2=8.015 $Y2=2.515
r220 64 65 107.973 $w=1.68e-07 $l=1.655e-06 $layer=LI1_cond $X=7.93 $Y=2.6
+ $X2=6.275 $Y2=2.6
r221 63 65 6.81649 $w=1.7e-07 $l=1.20208e-07 $layer=LI1_cond $X=6.19 $Y=2.515
+ $X2=6.275 $Y2=2.6
r222 62 78 4.62375 $w=1.7e-07 $l=1.65e-07 $layer=LI1_cond $X=6.19 $Y=2.28
+ $X2=6.19 $Y2=2.115
r223 62 63 15.3316 $w=1.68e-07 $l=2.35e-07 $layer=LI1_cond $X=6.19 $Y=2.28
+ $X2=6.19 $Y2=2.515
r224 61 89 15.7375 $w=3.3e-07 $l=9e-08 $layer=POLY_cond $X=4.01 $Y=1.465
+ $X2=4.01 $Y2=1.555
r225 61 88 46.2115 $w=3.3e-07 $l=1.65e-07 $layer=POLY_cond $X=4.01 $Y=1.465
+ $X2=4.01 $Y2=1.3
r226 60 61 145.28 $w=1.7e-07 $l=1.7e-07 $layer=licon1_POLY $count=1 $X=4.01
+ $Y=1.465 $X2=4.01 $Y2=1.465
r227 58 60 13.1973 $w=3.08e-07 $l=3.55e-07 $layer=LI1_cond $X=4.01 $Y=1.82
+ $X2=4.01 $Y2=1.465
r228 57 73 8.09553 $w=3.08e-07 $l=1.55e-07 $layer=LI1_cond $X=4.01 $Y=1.455
+ $X2=4.01 $Y2=1.3
r229 57 60 0.371756 $w=3.08e-07 $l=1e-08 $layer=LI1_cond $X=4.01 $Y=1.455
+ $X2=4.01 $Y2=1.465
r230 55 73 18.9198 $w=1.68e-07 $l=2.9e-07 $layer=LI1_cond $X=3.94 $Y=1.01
+ $X2=3.94 $Y2=1.3
r231 54 68 4.62375 $w=1.7e-07 $l=1.65e-07 $layer=LI1_cond $X=3.655 $Y=1.905
+ $X2=3.49 $Y2=1.905
r232 53 58 7.59919 $w=1.7e-07 $l=1.92873e-07 $layer=LI1_cond $X=3.855 $Y=1.905
+ $X2=4.01 $Y2=1.82
r233 53 54 13.0481 $w=1.68e-07 $l=2e-07 $layer=LI1_cond $X=3.855 $Y=1.905
+ $X2=3.655 $Y2=1.905
r234 51 55 6.81649 $w=1.7e-07 $l=1.20208e-07 $layer=LI1_cond $X=3.855 $Y=0.925
+ $X2=3.94 $Y2=1.01
r235 51 52 26.0963 $w=1.68e-07 $l=4e-07 $layer=LI1_cond $X=3.855 $Y=0.925
+ $X2=3.455 $Y2=0.925
r236 47 52 7.76618 $w=1.7e-07 $l=2.03101e-07 $layer=LI1_cond $X=3.29 $Y=0.84
+ $X2=3.455 $Y2=0.925
r237 47 49 11.3498 $w=3.28e-07 $l=3.25e-07 $layer=LI1_cond $X=3.29 $Y=0.84
+ $X2=3.29 $Y2=0.515
r238 46 82 31.475 $w=3.3e-07 $l=1.8e-07 $layer=POLY_cond $X=8.115 $Y=1.79
+ $X2=7.935 $Y2=1.79
r239 42 43 102.553 $w=1.5e-07 $l=2e-07 $layer=POLY_cond $X=5.055 $Y=1.555
+ $X2=5.055 $Y2=1.755
r240 36 38 212.798 $w=1.5e-07 $l=4.15e-07 $layer=POLY_cond $X=8.755 $Y=0.995
+ $X2=8.755 $Y2=0.58
r241 34 36 26.9307 $w=1.5e-07 $l=1.06066e-07 $layer=POLY_cond $X=8.68 $Y=1.07
+ $X2=8.755 $Y2=0.995
r242 34 35 182.032 $w=1.5e-07 $l=3.55e-07 $layer=POLY_cond $X=8.68 $Y=1.07
+ $X2=8.325 $Y2=1.07
r243 33 46 44.1289 $w=1.9e-07 $l=1.79374e-07 $layer=POLY_cond $X=8.25 $Y=1.625
+ $X2=8.22 $Y2=1.79
r244 32 35 26.9307 $w=1.5e-07 $l=1.06066e-07 $layer=POLY_cond $X=8.25 $Y=1.145
+ $X2=8.325 $Y2=1.07
r245 32 33 246.128 $w=1.5e-07 $l=4.8e-07 $layer=POLY_cond $X=8.25 $Y=1.145
+ $X2=8.25 $Y2=1.625
r246 29 46 65.692 $w=1.9e-07 $l=2.57391e-07 $layer=POLY_cond $X=8.205 $Y=2.04
+ $X2=8.22 $Y2=1.79
r247 29 31 159.06 $w=1.5e-07 $l=4.95e-07 $layer=POLY_cond $X=8.205 $Y=2.04
+ $X2=8.205 $Y2=2.535
r248 26 76 72.8652 $w=2.52e-07 $l=3.75633e-07 $layer=POLY_cond $X=5.995 $Y=2.455
+ $X2=6.07 $Y2=2.115
r249 26 28 91.58 $w=1.5e-07 $l=2.85e-07 $layer=POLY_cond $X=5.995 $Y=2.455
+ $X2=5.995 $Y2=2.74
r250 25 76 2.81204 $w=3.3e-07 $l=8.75758e-08 $layer=POLY_cond $X=6.07 $Y=2.115
+ $X2=6.07 $Y2=2.115
r251 24 25 49.8355 $w=3.3e-07 $l=2.85e-07 $layer=POLY_cond $X=6.07 $Y=1.83
+ $X2=6.07 $Y2=2.115
r252 23 43 2.83073 $w=1.5e-07 $l=7.5e-08 $layer=POLY_cond $X=5.13 $Y=1.755
+ $X2=5.055 $Y2=1.755
r253 22 24 32.1775 $w=1.5e-07 $l=1.98997e-07 $layer=POLY_cond $X=5.905 $Y=1.755
+ $X2=6.07 $Y2=1.83
r254 22 23 397.394 $w=1.5e-07 $l=7.75e-07 $layer=POLY_cond $X=5.905 $Y=1.755
+ $X2=5.13 $Y2=1.755
r255 18 42 38.4574 $w=1.5e-07 $l=7.5e-08 $layer=POLY_cond $X=5.055 $Y=1.48
+ $X2=5.055 $Y2=1.555
r256 18 20 394.83 $w=1.5e-07 $l=7.7e-07 $layer=POLY_cond $X=5.055 $Y=1.48
+ $X2=5.055 $Y2=0.71
r257 17 40 7.1379 $w=1.5e-07 $l=9e-08 $layer=POLY_cond $X=4.625 $Y=1.555
+ $X2=4.535 $Y2=1.555
r258 16 42 2.83073 $w=1.5e-07 $l=7.5e-08 $layer=POLY_cond $X=4.98 $Y=1.555
+ $X2=5.055 $Y2=1.555
r259 16 17 182.032 $w=1.5e-07 $l=3.55e-07 $layer=POLY_cond $X=4.98 $Y=1.555
+ $X2=4.625 $Y2=1.555
r260 13 40 83.7788 $w=1.8e-07 $l=2.1e-07 $layer=POLY_cond $X=4.535 $Y=1.765
+ $X2=4.535 $Y2=1.555
r261 13 15 204.047 $w=1.5e-07 $l=6.35e-07 $layer=POLY_cond $X=4.535 $Y=1.765
+ $X2=4.535 $Y2=2.4
r262 12 89 21.2229 $w=1.5e-07 $l=1.65e-07 $layer=POLY_cond $X=4.175 $Y=1.555
+ $X2=4.01 $Y2=1.555
r263 11 40 7.1379 $w=1.5e-07 $l=9e-08 $layer=POLY_cond $X=4.445 $Y=1.555
+ $X2=4.535 $Y2=1.555
r264 11 12 138.447 $w=1.5e-07 $l=2.7e-07 $layer=POLY_cond $X=4.445 $Y=1.555
+ $X2=4.175 $Y2=1.555
r265 9 88 287.149 $w=1.5e-07 $l=5.6e-07 $layer=POLY_cond $X=4.065 $Y=0.74
+ $X2=4.065 $Y2=1.3
r266 2 71 600 $w=1.7e-07 $l=2.43721e-07 $layer=licon1_PDIFF $count=1 $X=3.34
+ $Y=1.84 $X2=3.49 $Y2=2.02
r267 1 49 91 $w=1.7e-07 $l=2.03286e-07 $layer=licon1_NDIFF $count=2 $X=3.15
+ $Y=0.37 $X2=3.29 $Y2=0.515
.ends

.subckt PM_SKY130_FD_SC_HS__SDFXTP_4%A_1257_74# 1 2 9 12 13 15 16 22 24 26 30 32
+ 36
r76 27 30 6.45368 $w=2.48e-07 $l=1.4e-07 $layer=LI1_cond $X=7.415 $Y=0.76
+ $X2=7.555 $Y2=0.76
r77 24 26 0.716491 $w=1.7e-07 $l=8.5e-08 $layer=LI1_cond $X=7.415 $Y=2.175
+ $X2=7.415 $Y2=2.26
r78 23 32 8.61065 $w=1.7e-07 $l=1.65e-07 $layer=LI1_cond $X=7.415 $Y=1.44
+ $X2=7.415 $Y2=1.275
r79 23 24 47.9519 $w=1.68e-07 $l=7.35e-07 $layer=LI1_cond $X=7.415 $Y=1.44
+ $X2=7.415 $Y2=2.175
r80 22 32 8.61065 $w=1.7e-07 $l=1.65e-07 $layer=LI1_cond $X=7.415 $Y=1.11
+ $X2=7.415 $Y2=1.275
r81 21 27 2.99516 $w=1.7e-07 $l=1.25e-07 $layer=LI1_cond $X=7.415 $Y=0.885
+ $X2=7.415 $Y2=0.76
r82 21 22 14.6791 $w=1.68e-07 $l=2.25e-07 $layer=LI1_cond $X=7.415 $Y=0.885
+ $X2=7.415 $Y2=1.11
r83 19 36 13.1146 $w=3.3e-07 $l=7.5e-08 $layer=POLY_cond $X=6.46 $Y=1.275
+ $X2=6.535 $Y2=1.275
r84 19 33 17.4861 $w=3.3e-07 $l=1e-07 $layer=POLY_cond $X=6.46 $Y=1.275 $X2=6.36
+ $Y2=1.275
r85 18 19 145.28 $w=1.7e-07 $l=1.7e-07 $layer=licon1_POLY $count=1 $X=6.46
+ $Y=1.275 $X2=6.46 $Y2=1.275
r86 16 32 0.89609 $w=3.3e-07 $l=8.5e-08 $layer=LI1_cond $X=7.33 $Y=1.275
+ $X2=7.415 $Y2=1.275
r87 16 18 30.3826 $w=3.28e-07 $l=8.7e-07 $layer=LI1_cond $X=7.33 $Y=1.275
+ $X2=6.46 $Y2=1.275
r88 13 15 91.58 $w=1.5e-07 $l=2.85e-07 $layer=POLY_cond $X=6.535 $Y=2.455
+ $X2=6.535 $Y2=2.74
r89 12 13 36.0588 $w=1.8e-07 $l=9e-08 $layer=POLY_cond $X=6.535 $Y=2.365
+ $X2=6.535 $Y2=2.455
r90 11 36 16.9318 $w=1.8e-07 $l=1.65e-07 $layer=POLY_cond $X=6.535 $Y=1.44
+ $X2=6.535 $Y2=1.275
r91 11 12 359.556 $w=1.8e-07 $l=9.25e-07 $layer=POLY_cond $X=6.535 $Y=1.44
+ $X2=6.535 $Y2=2.365
r92 7 33 21.2229 $w=1.5e-07 $l=1.65e-07 $layer=POLY_cond $X=6.36 $Y=1.11
+ $X2=6.36 $Y2=1.275
r93 7 9 205.106 $w=1.5e-07 $l=4e-07 $layer=POLY_cond $X=6.36 $Y=1.11 $X2=6.36
+ $Y2=0.71
r94 2 26 600 $w=1.7e-07 $l=3.19374e-07 $layer=licon1_PDIFF $count=1 $X=7.23
+ $Y=2.115 $X2=7.485 $Y2=2.26
r95 1 30 182 $w=1.7e-07 $l=4.38748e-07 $layer=licon1_NDIFF $count=1 $X=7.355
+ $Y=0.37 $X2=7.555 $Y2=0.72
.ends

.subckt PM_SKY130_FD_SC_HS__SDFXTP_4%A_1026_100# 1 2 7 9 12 16 20 21 26 27 36
c81 21 0 1.3178e-19 $X=5.745 $Y=1.695
r82 36 37 16.5522 $w=3.64e-07 $l=1.25e-07 $layer=POLY_cond $X=7.155 $Y=1.825
+ $X2=7.28 $Y2=1.825
r83 33 36 20.5247 $w=3.64e-07 $l=1.55e-07 $layer=POLY_cond $X=7 $Y=1.825
+ $X2=7.155 $Y2=1.825
r84 32 33 145.28 $w=1.7e-07 $l=1.7e-07 $layer=licon1_POLY $count=1 $X=7 $Y=1.775
+ $X2=7 $Y2=1.775
r85 26 27 10.5918 $w=3.58e-07 $l=2.3e-07 $layer=LI1_cond $X=5.755 $Y=2.74
+ $X2=5.755 $Y2=2.51
r86 22 24 9.13369 $w=1.68e-07 $l=1.4e-07 $layer=LI1_cond $X=5.52 $Y=1.695
+ $X2=5.66 $Y2=1.695
r87 21 24 5.54545 $w=1.68e-07 $l=8.5e-08 $layer=LI1_cond $X=5.745 $Y=1.695
+ $X2=5.66 $Y2=1.695
r88 20 32 2.83678 $w=3.23e-07 $l=8e-08 $layer=LI1_cond $X=6.997 $Y=1.695
+ $X2=6.997 $Y2=1.775
r89 20 21 71.1123 $w=1.68e-07 $l=1.09e-06 $layer=LI1_cond $X=6.835 $Y=1.695
+ $X2=5.745 $Y2=1.695
r90 18 24 0.716491 $w=1.7e-07 $l=8.5e-08 $layer=LI1_cond $X=5.66 $Y=1.78
+ $X2=5.66 $Y2=1.695
r91 18 27 47.6257 $w=1.68e-07 $l=7.3e-07 $layer=LI1_cond $X=5.66 $Y=1.78
+ $X2=5.66 $Y2=2.51
r92 14 22 0.716491 $w=1.7e-07 $l=8.5e-08 $layer=LI1_cond $X=5.52 $Y=1.61
+ $X2=5.52 $Y2=1.695
r93 14 16 55.1283 $w=1.68e-07 $l=8.45e-07 $layer=LI1_cond $X=5.52 $Y=1.61
+ $X2=5.52 $Y2=0.765
r94 10 37 23.572 $w=1.5e-07 $l=2.15e-07 $layer=POLY_cond $X=7.28 $Y=1.61
+ $X2=7.28 $Y2=1.825
r95 10 12 494.819 $w=1.5e-07 $l=9.65e-07 $layer=POLY_cond $X=7.28 $Y=1.61
+ $X2=7.28 $Y2=0.645
r96 7 36 23.572 $w=1.5e-07 $l=2.15e-07 $layer=POLY_cond $X=7.155 $Y=2.04
+ $X2=7.155 $Y2=1.825
r97 7 9 159.06 $w=1.5e-07 $l=4.95e-07 $layer=POLY_cond $X=7.155 $Y=2.04
+ $X2=7.155 $Y2=2.535
r98 2 26 600 $w=1.7e-07 $l=2.74955e-07 $layer=licon1_PDIFF $count=1 $X=5.62
+ $Y=2.53 $X2=5.77 $Y2=2.74
r99 1 16 182 $w=1.7e-07 $l=5.05421e-07 $layer=licon1_NDIFF $count=1 $X=5.13
+ $Y=0.5 $X2=5.52 $Y2=0.765
.ends

.subckt PM_SKY130_FD_SC_HS__SDFXTP_4%A_1814_48# 1 2 7 9 10 11 12 14 19 21 23 24
+ 26 29 31 33 36 38 40 43 46 47 52 56 61 66 70 71 82
c153 71 0 1.73925e-19 $X=9.932 $Y=1.97
c154 56 0 2.26236e-19 $X=10.135 $Y=1.465
c155 10 0 6.75189e-20 $X=9.165 $Y=1.475
r156 82 83 1.22646 $w=3.93e-07 $l=1e-08 $layer=POLY_cond $X=11.975 $Y=1.532
+ $X2=11.985 $Y2=1.532
r157 81 82 51.5115 $w=3.93e-07 $l=4.2e-07 $layer=POLY_cond $X=11.555 $Y=1.532
+ $X2=11.975 $Y2=1.532
r158 80 81 3.67939 $w=3.93e-07 $l=3e-08 $layer=POLY_cond $X=11.525 $Y=1.532
+ $X2=11.555 $Y2=1.532
r159 77 78 6.13232 $w=3.93e-07 $l=5e-08 $layer=POLY_cond $X=11.075 $Y=1.532
+ $X2=11.125 $Y2=1.532
r160 74 75 1.83969 $w=3.93e-07 $l=1.5e-08 $layer=POLY_cond $X=10.61 $Y=1.532
+ $X2=10.625 $Y2=1.532
r161 70 71 8.6688 $w=4.03e-07 $l=1.65e-07 $layer=LI1_cond $X=9.932 $Y=2.135
+ $X2=9.932 $Y2=1.97
r162 65 66 145.28 $w=1.7e-07 $l=1.7e-07 $layer=licon1_POLY $count=1 $X=9.5
+ $Y=1.065 $X2=9.5 $Y2=1.065
r163 62 80 17.7837 $w=3.93e-07 $l=1.45e-07 $layer=POLY_cond $X=11.38 $Y=1.532
+ $X2=11.525 $Y2=1.532
r164 62 78 31.2748 $w=3.93e-07 $l=2.55e-07 $layer=POLY_cond $X=11.38 $Y=1.532
+ $X2=11.125 $Y2=1.532
r165 61 62 96.8533 $w=1.7e-07 $l=2.55e-07 $layer=licon1_POLY $count=1 $X=11.38
+ $Y=1.465 $X2=11.38 $Y2=1.465
r166 59 77 45.9924 $w=3.93e-07 $l=3.75e-07 $layer=POLY_cond $X=10.7 $Y=1.532
+ $X2=11.075 $Y2=1.532
r167 59 75 9.19847 $w=3.93e-07 $l=7.5e-08 $layer=POLY_cond $X=10.7 $Y=1.532
+ $X2=10.625 $Y2=1.532
r168 58 61 23.7473 $w=3.28e-07 $l=6.8e-07 $layer=LI1_cond $X=10.7 $Y=1.465
+ $X2=11.38 $Y2=1.465
r169 58 59 96.8533 $w=1.7e-07 $l=2.55e-07 $layer=licon1_POLY $count=1 $X=10.7
+ $Y=1.465 $X2=10.7 $Y2=1.465
r170 56 68 3.11411 $w=3.33e-07 $l=2.38747e-07 $layer=LI1_cond $X=10.135 $Y=1.465
+ $X2=10.05 $Y2=1.265
r171 56 58 19.7312 $w=3.28e-07 $l=5.65e-07 $layer=LI1_cond $X=10.135 $Y=1.465
+ $X2=10.7 $Y2=1.465
r172 54 68 4.67747 $w=1.7e-07 $l=3.65e-07 $layer=LI1_cond $X=10.05 $Y=1.63
+ $X2=10.05 $Y2=1.265
r173 54 71 22.1818 $w=1.68e-07 $l=3.4e-07 $layer=LI1_cond $X=10.05 $Y=1.63
+ $X2=10.05 $Y2=1.97
r174 50 68 4.76276 $w=3.33e-07 $l=1.3e-07 $layer=LI1_cond $X=9.92 $Y=1.265
+ $X2=10.05 $Y2=1.265
r175 50 65 15.3874 $w=3.33e-07 $l=4.2e-07 $layer=LI1_cond $X=9.92 $Y=1.265
+ $X2=9.5 $Y2=1.265
r176 50 52 40.123 $w=1.68e-07 $l=6.15e-07 $layer=LI1_cond $X=9.92 $Y=1.13
+ $X2=9.92 $Y2=0.515
r177 45 66 42.841 $w=3.3e-07 $l=2.45e-07 $layer=POLY_cond $X=9.255 $Y=1.065
+ $X2=9.5 $Y2=1.065
r178 45 46 5.03009 $w=3.3e-07 $l=2.5446e-07 $layer=POLY_cond $X=9.255 $Y=1.065
+ $X2=9.07 $Y2=0.9
r179 41 83 25.4309 $w=1.5e-07 $l=2.32e-07 $layer=POLY_cond $X=11.985 $Y=1.3
+ $X2=11.985 $Y2=1.532
r180 41 43 287.149 $w=1.5e-07 $l=5.6e-07 $layer=POLY_cond $X=11.985 $Y=1.3
+ $X2=11.985 $Y2=0.74
r181 38 82 25.4309 $w=1.5e-07 $l=2.33e-07 $layer=POLY_cond $X=11.975 $Y=1.765
+ $X2=11.975 $Y2=1.532
r182 38 40 204.047 $w=1.5e-07 $l=6.35e-07 $layer=POLY_cond $X=11.975 $Y=1.765
+ $X2=11.975 $Y2=2.4
r183 34 81 25.4309 $w=1.5e-07 $l=2.32e-07 $layer=POLY_cond $X=11.555 $Y=1.3
+ $X2=11.555 $Y2=1.532
r184 34 36 287.149 $w=1.5e-07 $l=5.6e-07 $layer=POLY_cond $X=11.555 $Y=1.3
+ $X2=11.555 $Y2=0.74
r185 31 80 25.4309 $w=1.5e-07 $l=2.33e-07 $layer=POLY_cond $X=11.525 $Y=1.765
+ $X2=11.525 $Y2=1.532
r186 31 33 204.047 $w=1.5e-07 $l=6.35e-07 $layer=POLY_cond $X=11.525 $Y=1.765
+ $X2=11.525 $Y2=2.4
r187 27 78 25.4309 $w=1.5e-07 $l=2.32e-07 $layer=POLY_cond $X=11.125 $Y=1.3
+ $X2=11.125 $Y2=1.532
r188 27 29 287.149 $w=1.5e-07 $l=5.6e-07 $layer=POLY_cond $X=11.125 $Y=1.3
+ $X2=11.125 $Y2=0.74
r189 24 77 25.4309 $w=1.5e-07 $l=2.33e-07 $layer=POLY_cond $X=11.075 $Y=1.765
+ $X2=11.075 $Y2=1.532
r190 24 26 204.047 $w=1.5e-07 $l=6.35e-07 $layer=POLY_cond $X=11.075 $Y=1.765
+ $X2=11.075 $Y2=2.4
r191 21 75 25.4309 $w=1.5e-07 $l=2.33e-07 $layer=POLY_cond $X=10.625 $Y=1.765
+ $X2=10.625 $Y2=1.532
r192 21 23 204.047 $w=1.5e-07 $l=6.35e-07 $layer=POLY_cond $X=10.625 $Y=1.765
+ $X2=10.625 $Y2=2.4
r193 17 74 25.4309 $w=1.5e-07 $l=2.32e-07 $layer=POLY_cond $X=10.61 $Y=1.3
+ $X2=10.61 $Y2=1.532
r194 17 19 287.149 $w=1.5e-07 $l=5.6e-07 $layer=POLY_cond $X=10.61 $Y=1.3
+ $X2=10.61 $Y2=0.74
r195 15 46 37.0704 $w=1.5e-07 $l=3.81051e-07 $layer=POLY_cond $X=9.18 $Y=1.23
+ $X2=9.07 $Y2=0.9
r196 15 47 79.4787 $w=1.5e-07 $l=1.55e-07 $layer=POLY_cond $X=9.18 $Y=1.23
+ $X2=9.18 $Y2=1.385
r197 12 14 91.58 $w=1.5e-07 $l=2.85e-07 $layer=POLY_cond $X=9.165 $Y=2.305
+ $X2=9.165 $Y2=2.59
r198 11 12 36.0588 $w=1.8e-07 $l=9e-08 $layer=POLY_cond $X=9.165 $Y=2.215
+ $X2=9.165 $Y2=2.305
r199 10 47 37.1337 $w=1.8e-07 $l=9e-08 $layer=POLY_cond $X=9.165 $Y=1.475
+ $X2=9.165 $Y2=1.385
r200 10 11 287.645 $w=1.8e-07 $l=7.4e-07 $layer=POLY_cond $X=9.165 $Y=1.475
+ $X2=9.165 $Y2=2.215
r201 7 46 37.0704 $w=1.5e-07 $l=7.5e-08 $layer=POLY_cond $X=9.145 $Y=0.9
+ $X2=9.07 $Y2=0.9
r202 7 9 102.827 $w=1.5e-07 $l=3.2e-07 $layer=POLY_cond $X=9.145 $Y=0.9
+ $X2=9.145 $Y2=0.58
r203 2 70 300 $w=1.7e-07 $l=2.38485e-07 $layer=licon1_PDIFF $count=2 $X=9.745
+ $Y=1.96 $X2=9.895 $Y2=2.135
r204 1 52 91 $w=1.7e-07 $l=2.05061e-07 $layer=licon1_NDIFF $count=2 $X=9.775
+ $Y=0.37 $X2=9.92 $Y2=0.515
.ends

.subckt PM_SKY130_FD_SC_HS__SDFXTP_4%A_1587_74# 1 2 7 9 10 13 14 16 19 21 24 28
+ 30 31 32 33 35 37 40 43
c113 43 0 6.75189e-20 $X=9.1 $Y=1.635
c114 33 0 8.70044e-20 $X=8.625 $Y=0.985
c115 13 0 1.24604e-19 $X=10.12 $Y=1.795
r116 41 44 14.5084 $w=2.99e-07 $l=9e-08 $layer=POLY_cond $X=9.63 $Y=1.635
+ $X2=9.63 $Y2=1.545
r117 40 41 145.28 $w=1.7e-07 $l=1.7e-07 $layer=licon1_POLY $count=1 $X=9.63
+ $Y=1.635 $X2=9.63 $Y2=1.635
r118 38 43 0.89609 $w=3.3e-07 $l=8.5e-08 $layer=LI1_cond $X=9.185 $Y=1.635
+ $X2=9.1 $Y2=1.635
r119 38 40 15.5405 $w=3.28e-07 $l=4.45e-07 $layer=LI1_cond $X=9.185 $Y=1.635
+ $X2=9.63 $Y2=1.635
r120 36 43 8.61065 $w=1.7e-07 $l=1.65e-07 $layer=LI1_cond $X=9.1 $Y=1.8 $X2=9.1
+ $Y2=1.635
r121 36 37 14.3529 $w=1.68e-07 $l=2.2e-07 $layer=LI1_cond $X=9.1 $Y=1.8 $X2=9.1
+ $Y2=2.02
r122 35 43 8.61065 $w=1.7e-07 $l=1.65e-07 $layer=LI1_cond $X=9.1 $Y=1.47 $X2=9.1
+ $Y2=1.635
r123 34 35 26.0963 $w=1.68e-07 $l=4e-07 $layer=LI1_cond $X=9.1 $Y=1.07 $X2=9.1
+ $Y2=1.47
r124 32 34 6.81649 $w=1.7e-07 $l=1.20208e-07 $layer=LI1_cond $X=9.015 $Y=0.985
+ $X2=9.1 $Y2=1.07
r125 32 33 25.4438 $w=1.68e-07 $l=3.9e-07 $layer=LI1_cond $X=9.015 $Y=0.985
+ $X2=8.625 $Y2=0.985
r126 30 37 6.81649 $w=1.7e-07 $l=1.20208e-07 $layer=LI1_cond $X=9.015 $Y=2.105
+ $X2=9.1 $Y2=2.02
r127 30 31 27.0749 $w=1.68e-07 $l=4.15e-07 $layer=LI1_cond $X=9.015 $Y=2.105
+ $X2=8.6 $Y2=2.105
r128 26 33 7.76618 $w=1.7e-07 $l=2.03101e-07 $layer=LI1_cond $X=8.46 $Y=0.9
+ $X2=8.625 $Y2=0.985
r129 26 28 9.95292 $w=3.28e-07 $l=2.85e-07 $layer=LI1_cond $X=8.46 $Y=0.9
+ $X2=8.46 $Y2=0.615
r130 22 31 7.76618 $w=1.7e-07 $l=2.03101e-07 $layer=LI1_cond $X=8.435 $Y=2.19
+ $X2=8.6 $Y2=2.105
r131 22 24 2.44458 $w=3.28e-07 $l=7e-08 $layer=LI1_cond $X=8.435 $Y=2.19
+ $X2=8.435 $Y2=2.26
r132 17 21 18.8402 $w=1.65e-07 $l=8.21584e-08 $layer=POLY_cond $X=10.135 $Y=1.47
+ $X2=10.12 $Y2=1.545
r133 17 19 374.319 $w=1.5e-07 $l=7.3e-07 $layer=POLY_cond $X=10.135 $Y=1.47
+ $X2=10.135 $Y2=0.74
r134 14 16 159.06 $w=1.5e-07 $l=4.95e-07 $layer=POLY_cond $X=10.12 $Y=1.885
+ $X2=10.12 $Y2=2.38
r135 13 14 36.0588 $w=1.8e-07 $l=9e-08 $layer=POLY_cond $X=10.12 $Y=1.795
+ $X2=10.12 $Y2=1.885
r136 12 21 18.8402 $w=1.65e-07 $l=7.5e-08 $layer=POLY_cond $X=10.12 $Y=1.62
+ $X2=10.12 $Y2=1.545
r137 12 13 68.0242 $w=1.8e-07 $l=1.75e-07 $layer=POLY_cond $X=10.12 $Y=1.62
+ $X2=10.12 $Y2=1.795
r138 11 44 18.89 $w=1.5e-07 $l=1.65e-07 $layer=POLY_cond $X=9.795 $Y=1.545
+ $X2=9.63 $Y2=1.545
r139 10 21 6.66866 $w=1.5e-07 $l=9e-08 $layer=POLY_cond $X=10.03 $Y=1.545
+ $X2=10.12 $Y2=1.545
r140 10 11 120.5 $w=1.5e-07 $l=2.35e-07 $layer=POLY_cond $X=10.03 $Y=1.545
+ $X2=9.795 $Y2=1.545
r141 7 41 52.2586 $w=2.99e-07 $l=2.69258e-07 $layer=POLY_cond $X=9.67 $Y=1.885
+ $X2=9.63 $Y2=1.635
r142 7 9 159.06 $w=1.5e-07 $l=4.95e-07 $layer=POLY_cond $X=9.67 $Y=1.885
+ $X2=9.67 $Y2=2.38
r143 2 24 300 $w=1.7e-07 $l=2.15639e-07 $layer=licon1_PDIFF $count=2 $X=8.28
+ $Y=2.115 $X2=8.435 $Y2=2.26