* File: sky130_fd_sc_hs__dfbbn_2.pex.spice
* Created: Tue Sep  1 19:59:27 2020
* Program "Calibre xRC"
* Version "v2018.4_34.26"
* Nominal Temperature: 27C
* Circuit Temperature: 27C
* 
.subckt PM_SKY130_FD_SC_HS__DFBBN_2%CLK_N 3 5 7 8 12
c31 5 0 1.54296e-19 $X=0.495 $Y=1.765
r32 11 12 145.28 $w=1.7e-07 $l=1.7e-07 $layer=licon1_POLY $count=1 $X=0.33
+ $Y=1.465 $X2=0.33 $Y2=1.465
r33 8 12 6.22942 $w=3.68e-07 $l=2e-07 $layer=LI1_cond $X=0.31 $Y=1.665 $X2=0.31
+ $Y2=1.465
r34 5 11 57.3754 $w=3.5e-07 $l=3.54965e-07 $layer=POLY_cond $X=0.495 $Y=1.765
+ $X2=0.375 $Y2=1.465
r35 5 7 204.047 $w=1.5e-07 $l=6.35e-07 $layer=POLY_cond $X=0.495 $Y=1.765
+ $X2=0.495 $Y2=2.4
r36 1 11 38.7839 $w=3.5e-07 $l=2.16852e-07 $layer=POLY_cond $X=0.495 $Y=1.3
+ $X2=0.375 $Y2=1.465
r37 1 3 287.149 $w=1.5e-07 $l=5.6e-07 $layer=POLY_cond $X=0.495 $Y=1.3 $X2=0.495
+ $Y2=0.74
.ends

.subckt PM_SKY130_FD_SC_HS__DFBBN_2%D 3 6 7 9 10 11 18
r43 16 18 19.2347 $w=3.3e-07 $l=1.1e-07 $layer=POLY_cond $X=2.01 $Y=1.345
+ $X2=2.12 $Y2=1.345
r44 14 16 16.6118 $w=3.3e-07 $l=9.5e-08 $layer=POLY_cond $X=1.915 $Y=1.345
+ $X2=2.01 $Y2=1.345
r45 10 11 18.1597 $w=3.28e-07 $l=5.2e-07 $layer=LI1_cond $X=2.12 $Y=1.345
+ $X2=2.64 $Y2=1.345
r46 10 18 145.28 $w=1.7e-07 $l=1.7e-07 $layer=licon1_POLY $count=1 $X=2.12
+ $Y=1.345 $X2=2.12 $Y2=1.345
r47 7 9 91.58 $w=1.5e-07 $l=2.85e-07 $layer=POLY_cond $X=2.01 $Y=2.44 $X2=2.01
+ $Y2=2.725
r48 6 7 36.0588 $w=1.8e-07 $l=9e-08 $layer=POLY_cond $X=2.01 $Y=2.35 $X2=2.01
+ $Y2=2.44
r49 5 16 16.9318 $w=1.8e-07 $l=1.65e-07 $layer=POLY_cond $X=2.01 $Y=1.51
+ $X2=2.01 $Y2=1.345
r50 5 6 326.516 $w=1.8e-07 $l=8.4e-07 $layer=POLY_cond $X=2.01 $Y=1.51 $X2=2.01
+ $Y2=2.35
r51 1 14 21.2229 $w=1.5e-07 $l=1.65e-07 $layer=POLY_cond $X=1.915 $Y=1.18
+ $X2=1.915 $Y2=1.345
r52 1 3 192.287 $w=1.5e-07 $l=3.75e-07 $layer=POLY_cond $X=1.915 $Y=1.18
+ $X2=1.915 $Y2=0.805
.ends

.subckt PM_SKY130_FD_SC_HS__DFBBN_2%A_473_405# 1 2 3 12 14 16 19 21 23 25 26 27
+ 29 31 32 34 36 40 42 43 49 52 54
c177 34 0 1.08905e-19 $X=4.91 $Y=0.86
c178 19 0 1.32682e-19 $X=6.125 $Y=0.9
c179 14 0 1.48509e-19 $X=2.605 $Y=2.44
c180 12 0 4.5553e-21 $X=2.57 $Y=0.805
r181 46 49 6.63528 $w=3.28e-07 $l=1.9e-07 $layer=LI1_cond $X=2.53 $Y=2.19
+ $X2=2.72 $Y2=2.19
r182 46 47 145.28 $w=1.7e-07 $l=1.7e-07 $layer=licon1_POLY $count=1 $X=2.53
+ $Y=2.19 $X2=2.53 $Y2=2.19
r183 43 60 36.2507 $w=3.59e-07 $l=2.7e-07 $layer=POLY_cond $X=6.215 $Y=1.837
+ $X2=6.485 $Y2=1.837
r184 43 58 12.0836 $w=3.59e-07 $l=9e-08 $layer=POLY_cond $X=6.215 $Y=1.837
+ $X2=6.125 $Y2=1.837
r185 42 43 145.28 $w=1.7e-07 $l=1.7e-07 $layer=licon1_POLY $count=1 $X=6.215
+ $Y=1.795 $X2=6.215 $Y2=1.795
r186 40 54 31.6417 $w=1.68e-07 $l=4.85e-07 $layer=LI1_cond $X=6.215 $Y=2.405
+ $X2=5.73 $Y2=2.405
r187 40 42 18.3343 $w=3.28e-07 $l=5.25e-07 $layer=LI1_cond $X=6.215 $Y=2.32
+ $X2=6.215 $Y2=1.795
r188 37 52 3.3845 $w=1.7e-07 $l=2.98973e-07 $layer=LI1_cond $X=4.775 $Y=2.405
+ $X2=4.48 $Y2=2.397
r189 36 54 10.7647 $w=1.68e-07 $l=1.65e-07 $layer=LI1_cond $X=5.565 $Y=2.405
+ $X2=5.73 $Y2=2.405
r190 36 37 51.5401 $w=1.68e-07 $l=7.9e-07 $layer=LI1_cond $X=5.565 $Y=2.405
+ $X2=4.775 $Y2=2.405
r191 32 34 3.05058 $w=3.38e-07 $l=9e-08 $layer=LI1_cond $X=4.905 $Y=0.95
+ $X2=4.905 $Y2=0.86
r192 31 52 3.19717 $w=2.95e-07 $l=2.51833e-07 $layer=LI1_cond $X=4.69 $Y=2.305
+ $X2=4.48 $Y2=2.397
r193 30 32 13.2776 $w=3.17e-07 $l=4.39545e-07 $layer=LI1_cond $X=4.69 $Y=1.295
+ $X2=4.905 $Y2=0.95
r194 30 31 65.8931 $w=1.68e-07 $l=1.01e-06 $layer=LI1_cond $X=4.69 $Y=1.295
+ $X2=4.69 $Y2=2.305
r195 28 52 3.19717 $w=2.95e-07 $l=1.28662e-07 $layer=LI1_cond $X=4.395 $Y=2.49
+ $X2=4.48 $Y2=2.397
r196 28 29 11.3872 $w=4.18e-07 $l=4.15e-07 $layer=LI1_cond $X=4.395 $Y=2.49
+ $X2=4.395 $Y2=2.905
r197 26 29 8.54503 $w=1.7e-07 $l=2.48898e-07 $layer=LI1_cond $X=4.185 $Y=2.99
+ $X2=4.395 $Y2=2.905
r198 26 27 90.0321 $w=1.68e-07 $l=1.38e-06 $layer=LI1_cond $X=4.185 $Y=2.99
+ $X2=2.805 $Y2=2.99
r199 25 27 6.81649 $w=1.7e-07 $l=1.20208e-07 $layer=LI1_cond $X=2.72 $Y=2.905
+ $X2=2.805 $Y2=2.99
r200 24 49 4.62375 $w=1.7e-07 $l=1.65e-07 $layer=LI1_cond $X=2.72 $Y=2.355
+ $X2=2.72 $Y2=2.19
r201 24 25 35.8824 $w=1.68e-07 $l=5.5e-07 $layer=LI1_cond $X=2.72 $Y=2.355
+ $X2=2.72 $Y2=2.905
r202 21 60 23.2387 $w=1.5e-07 $l=2.08e-07 $layer=POLY_cond $X=6.485 $Y=2.045
+ $X2=6.485 $Y2=1.837
r203 21 23 159.06 $w=1.5e-07 $l=4.95e-07 $layer=POLY_cond $X=6.485 $Y=2.045
+ $X2=6.485 $Y2=2.54
r204 17 58 23.2387 $w=1.5e-07 $l=2.07e-07 $layer=POLY_cond $X=6.125 $Y=1.63
+ $X2=6.125 $Y2=1.837
r205 17 19 374.319 $w=1.5e-07 $l=7.3e-07 $layer=POLY_cond $X=6.125 $Y=1.63
+ $X2=6.125 $Y2=0.9
r206 14 47 52.2586 $w=2.99e-07 $l=2.85044e-07 $layer=POLY_cond $X=2.605 $Y=2.44
+ $X2=2.53 $Y2=2.19
r207 14 16 91.58 $w=1.5e-07 $l=2.85e-07 $layer=POLY_cond $X=2.605 $Y=2.44
+ $X2=2.605 $Y2=2.725
r208 10 47 38.5562 $w=2.99e-07 $l=1.83916e-07 $layer=POLY_cond $X=2.57 $Y=2.025
+ $X2=2.53 $Y2=2.19
r209 10 12 625.574 $w=1.5e-07 $l=1.22e-06 $layer=POLY_cond $X=2.57 $Y=2.025
+ $X2=2.57 $Y2=0.805
r210 3 54 300 $w=1.7e-07 $l=3.52101e-07 $layer=licon1_PDIFF $count=2 $X=5.58
+ $Y=2.12 $X2=5.73 $Y2=2.405
r211 2 52 300 $w=1.7e-07 $l=3.28634e-07 $layer=licon1_PDIFF $count=2 $X=4.22
+ $Y=2.12 $X2=4.35 $Y2=2.39
r212 1 34 182 $w=1.7e-07 $l=2.96859e-07 $layer=licon1_NDIFF $count=1 $X=4.77
+ $Y=0.625 $X2=4.91 $Y2=0.86
.ends

.subckt PM_SKY130_FD_SC_HS__DFBBN_2%A_200_74# 1 2 7 9 12 13 15 16 18 22 25 29 30
+ 32 33 34 37 41 42 44 47 50 51 52 53 54 58 60 61 67 72 73 74
c228 61 0 4.5553e-21 $X=3.265 $Y=1.295
c229 58 0 1.03189e-19 $X=7.85 $Y=1.385
c230 54 0 1.71006e-19 $X=7.81 $Y=1.295
c231 53 0 4.11442e-20 $X=3.102 $Y=1.77
c232 50 0 1.54296e-19 $X=1.17 $Y=1.985
c233 42 0 1.06658e-19 $X=6.95 $Y=1.41
c234 41 0 9.60143e-20 $X=3.117 $Y=1.685
c235 34 0 1.55193e-19 $X=2.125 $Y=1.77
c236 16 0 1.87607e-19 $X=8.125 $Y=1.22
r237 72 74 46.2115 $w=3.3e-07 $l=1.65e-07 $layer=POLY_cond $X=3.38 $Y=1.29
+ $X2=3.38 $Y2=1.125
r238 72 73 145.28 $w=1.7e-07 $l=1.7e-07 $layer=licon1_POLY $count=1 $X=3.38
+ $Y=1.29 $X2=3.38 $Y2=1.29
r239 67 68 9.3 $w=1.7e-07 $l=1.7e-07 $layer=mcon $count=1 $X=6.96 $Y=1.295
+ $X2=6.96 $Y2=1.295
r240 64 73 9.07985 $w=3.28e-07 $l=2.6e-07 $layer=LI1_cond $X=3.12 $Y=1.29
+ $X2=3.38 $Y2=1.29
r241 64 79 0.104768 $w=3.28e-07 $l=3e-09 $layer=LI1_cond $X=3.12 $Y=1.29
+ $X2=3.117 $Y2=1.29
r242 63 64 9.3 $w=1.7e-07 $l=1.7e-07 $layer=mcon $count=1 $X=3.12 $Y=1.295
+ $X2=3.12 $Y2=1.295
r243 61 63 0.115467 $w=2.3e-07 $l=1.45e-07 $layer=MET1_cond $X=3.265 $Y=1.295
+ $X2=3.12 $Y2=1.295
r244 60 67 0.115467 $w=2.3e-07 $l=1.45e-07 $layer=MET1_cond $X=6.815 $Y=1.295
+ $X2=6.96 $Y2=1.295
r245 60 61 4.39356 $w=1.4e-07 $l=3.55e-06 $layer=MET1_cond $X=6.815 $Y=1.295
+ $X2=3.265 $Y2=1.295
r246 57 58 145.28 $w=1.7e-07 $l=1.7e-07 $layer=licon1_POLY $count=1 $X=7.85
+ $Y=1.385 $X2=7.85 $Y2=1.385
r247 54 57 4.14879 $w=2.48e-07 $l=9e-08 $layer=LI1_cond $X=7.81 $Y=1.295
+ $X2=7.81 $Y2=1.385
r248 51 52 45.016 $w=1.68e-07 $l=6.9e-07 $layer=LI1_cond $X=1.36 $Y=1.82
+ $X2=1.36 $Y2=1.13
r249 50 51 8.83531 $w=4.38e-07 $l=1.65e-07 $layer=LI1_cond $X=1.225 $Y=1.985
+ $X2=1.225 $Y2=1.82
r250 48 68 4.18573 $w=2.3e-07 $l=1.65e-07 $layer=LI1_cond $X=7.115 $Y=1.295
+ $X2=6.95 $Y2=1.295
r251 47 54 1.2199 $w=2.3e-07 $l=1.25e-07 $layer=LI1_cond $X=7.685 $Y=1.295
+ $X2=7.81 $Y2=1.295
r252 47 48 28.5605 $w=2.28e-07 $l=5.7e-07 $layer=LI1_cond $X=7.685 $Y=1.295
+ $X2=7.115 $Y2=1.295
r253 44 45 145.28 $w=1.7e-07 $l=1.7e-07 $layer=licon1_POLY $count=1 $X=6.95
+ $Y=1.745 $X2=6.95 $Y2=1.745
r254 42 68 2.91733 $w=3.3e-07 $l=1.15e-07 $layer=LI1_cond $X=6.95 $Y=1.41
+ $X2=6.95 $Y2=1.295
r255 42 44 11.699 $w=3.28e-07 $l=3.35e-07 $layer=LI1_cond $X=6.95 $Y=1.41
+ $X2=6.95 $Y2=1.745
r256 41 53 3.84343 $w=2.4e-07 $l=9.21954e-08 $layer=LI1_cond $X=3.117 $Y=1.685
+ $X2=3.102 $Y2=1.77
r257 40 79 2.99809 $w=2.25e-07 $l=1.65e-07 $layer=LI1_cond $X=3.117 $Y=1.455
+ $X2=3.117 $Y2=1.29
r258 40 41 11.7805 $w=2.23e-07 $l=2.3e-07 $layer=LI1_cond $X=3.117 $Y=1.455
+ $X2=3.117 $Y2=1.685
r259 37 38 145.28 $w=1.7e-07 $l=1.7e-07 $layer=licon1_POLY $count=1 $X=3.07
+ $Y=2.19 $X2=3.07 $Y2=2.19
r260 35 53 3.84343 $w=2.4e-07 $l=8.5e-08 $layer=LI1_cond $X=3.102 $Y=1.855
+ $X2=3.102 $Y2=1.77
r261 35 37 15.1399 $w=2.53e-07 $l=3.35e-07 $layer=LI1_cond $X=3.102 $Y=1.855
+ $X2=3.102 $Y2=2.19
r262 33 53 2.60907 $w=1.7e-07 $l=1.27e-07 $layer=LI1_cond $X=2.975 $Y=1.77
+ $X2=3.102 $Y2=1.77
r263 33 34 55.4545 $w=1.68e-07 $l=8.5e-07 $layer=LI1_cond $X=2.975 $Y=1.77
+ $X2=2.125 $Y2=1.77
r264 31 34 6.81649 $w=1.7e-07 $l=1.20208e-07 $layer=LI1_cond $X=2.04 $Y=1.855
+ $X2=2.125 $Y2=1.77
r265 31 32 68.5027 $w=1.68e-07 $l=1.05e-06 $layer=LI1_cond $X=2.04 $Y=1.855
+ $X2=2.04 $Y2=2.905
r266 29 32 6.81649 $w=1.7e-07 $l=1.20208e-07 $layer=LI1_cond $X=1.955 $Y=2.99
+ $X2=2.04 $Y2=2.905
r267 29 30 33.2727 $w=1.68e-07 $l=5.1e-07 $layer=LI1_cond $X=1.955 $Y=2.99
+ $X2=1.445 $Y2=2.99
r268 23 52 9.49412 $w=3.88e-07 $l=1.95e-07 $layer=LI1_cond $X=1.25 $Y=0.935
+ $X2=1.25 $Y2=1.13
r269 23 25 12.4109 $w=3.88e-07 $l=4.2e-07 $layer=LI1_cond $X=1.25 $Y=0.935
+ $X2=1.25 $Y2=0.515
r270 20 30 8.71846 $w=1.7e-07 $l=2.59037e-07 $layer=LI1_cond $X=1.225 $Y=2.905
+ $X2=1.445 $Y2=2.99
r271 20 22 2.35727 $w=4.38e-07 $l=9e-08 $layer=LI1_cond $X=1.225 $Y=2.905
+ $X2=1.225 $Y2=2.815
r272 19 50 1.44055 $w=4.38e-07 $l=5.5e-08 $layer=LI1_cond $X=1.225 $Y=2.04
+ $X2=1.225 $Y2=1.985
r273 19 22 20.2987 $w=4.38e-07 $l=7.75e-07 $layer=LI1_cond $X=1.225 $Y=2.04
+ $X2=1.225 $Y2=2.815
r274 16 58 50.0189 $w=2.65e-07 $l=3.47851e-07 $layer=POLY_cond $X=8.125 $Y=1.22
+ $X2=7.85 $Y2=1.385
r275 16 18 102.827 $w=1.5e-07 $l=3.2e-07 $layer=POLY_cond $X=8.125 $Y=1.22
+ $X2=8.125 $Y2=0.9
r276 13 45 61.4066 $w=2.86e-07 $l=3.21714e-07 $layer=POLY_cond $X=6.905 $Y=2.045
+ $X2=6.95 $Y2=1.745
r277 13 15 159.06 $w=1.5e-07 $l=4.95e-07 $layer=POLY_cond $X=6.905 $Y=2.045
+ $X2=6.905 $Y2=2.54
r278 12 74 102.827 $w=1.5e-07 $l=3.2e-07 $layer=POLY_cond $X=3.36 $Y=0.805
+ $X2=3.36 $Y2=1.125
r279 7 38 52.2586 $w=2.99e-07 $l=2.7157e-07 $layer=POLY_cond $X=3.025 $Y=2.44
+ $X2=3.07 $Y2=2.19
r280 7 9 91.58 $w=1.5e-07 $l=2.85e-07 $layer=POLY_cond $X=3.025 $Y=2.44
+ $X2=3.025 $Y2=2.725
r281 2 50 400 $w=1.7e-07 $l=2.10357e-07 $layer=licon1_PDIFF $count=1 $X=1.02
+ $Y=1.84 $X2=1.17 $Y2=1.985
r282 2 22 400 $w=1.7e-07 $l=1.04732e-06 $layer=licon1_PDIFF $count=1 $X=1.02
+ $Y=1.84 $X2=1.17 $Y2=2.815
r283 1 25 91 $w=1.7e-07 $l=2.03286e-07 $layer=licon1_NDIFF $count=2 $X=1 $Y=0.37
+ $X2=1.14 $Y2=0.515
.ends

.subckt PM_SKY130_FD_SC_HS__DFBBN_2%A_601_119# 1 2 7 8 9 11 12 14 16 17 21 24 26
+ 28 33
c107 17 0 1.48509e-19 $X=3.4 $Y=2.65
c108 16 0 4.11442e-20 $X=4.485 $Y=1.63
c109 7 0 1.56987e-19 $X=4.575 $Y=1.795
r110 35 36 145.28 $w=1.7e-07 $l=1.7e-07 $layer=licon1_POLY $count=1 $X=4 $Y=1.63
+ $X2=4 $Y2=1.63
r111 33 35 9.49416 $w=2.57e-07 $l=2e-07 $layer=LI1_cond $X=3.8 $Y=1.63 $X2=4
+ $Y2=1.63
r112 32 33 14.9533 $w=2.57e-07 $l=3.15e-07 $layer=LI1_cond $X=3.485 $Y=1.63
+ $X2=3.8 $Y2=1.63
r113 28 30 3.31764 $w=3.28e-07 $l=9.5e-08 $layer=LI1_cond $X=3.145 $Y=0.775
+ $X2=3.145 $Y2=0.87
r114 26 33 3.1561 $w=1.7e-07 $l=1.65e-07 $layer=LI1_cond $X=3.8 $Y=1.465 $X2=3.8
+ $Y2=1.63
r115 25 26 33.2727 $w=1.68e-07 $l=5.1e-07 $layer=LI1_cond $X=3.8 $Y=0.955
+ $X2=3.8 $Y2=1.465
r116 23 32 3.1561 $w=1.7e-07 $l=1.65e-07 $layer=LI1_cond $X=3.485 $Y=1.795
+ $X2=3.485 $Y2=1.63
r117 23 24 50.2353 $w=1.68e-07 $l=7.7e-07 $layer=LI1_cond $X=3.485 $Y=1.795
+ $X2=3.485 $Y2=2.565
r118 22 30 4.62375 $w=1.7e-07 $l=1.65e-07 $layer=LI1_cond $X=3.31 $Y=0.87
+ $X2=3.145 $Y2=0.87
r119 21 25 6.81649 $w=1.7e-07 $l=1.20208e-07 $layer=LI1_cond $X=3.715 $Y=0.87
+ $X2=3.8 $Y2=0.955
r120 21 22 26.4225 $w=1.68e-07 $l=4.05e-07 $layer=LI1_cond $X=3.715 $Y=0.87
+ $X2=3.31 $Y2=0.87
r121 17 24 6.81649 $w=1.7e-07 $l=1.20208e-07 $layer=LI1_cond $X=3.4 $Y=2.65
+ $X2=3.485 $Y2=2.565
r122 17 19 7.82888 $w=1.68e-07 $l=1.2e-07 $layer=LI1_cond $X=3.4 $Y=2.65
+ $X2=3.28 $Y2=2.65
r123 16 36 84.8077 $w=3.3e-07 $l=4.85e-07 $layer=POLY_cond $X=4.485 $Y=1.63
+ $X2=4 $Y2=1.63
r124 12 16 95.8357 $w=1.97e-07 $l=4.12602e-07 $layer=POLY_cond $X=4.695 $Y=1.25
+ $X2=4.627 $Y2=1.63
r125 12 14 112.467 $w=1.5e-07 $l=3.5e-07 $layer=POLY_cond $X=4.695 $Y=1.25
+ $X2=4.695 $Y2=0.9
r126 9 11 159.06 $w=1.5e-07 $l=4.95e-07 $layer=POLY_cond $X=4.575 $Y=2.045
+ $X2=4.575 $Y2=2.54
r127 8 9 36.0588 $w=1.8e-07 $l=9e-08 $layer=POLY_cond $X=4.575 $Y=1.955
+ $X2=4.575 $Y2=2.045
r128 7 16 40.8205 $w=1.97e-07 $l=1.89222e-07 $layer=POLY_cond $X=4.575 $Y=1.795
+ $X2=4.627 $Y2=1.63
r129 7 8 62.1936 $w=1.8e-07 $l=1.6e-07 $layer=POLY_cond $X=4.575 $Y=1.795
+ $X2=4.575 $Y2=1.955
r130 2 19 600 $w=1.7e-07 $l=2.38118e-07 $layer=licon1_PDIFF $count=1 $X=3.1
+ $Y=2.515 $X2=3.28 $Y2=2.65
r131 1 28 182 $w=1.7e-07 $l=2.4e-07 $layer=licon1_NDIFF $count=1 $X=3.005
+ $Y=0.595 $X2=3.145 $Y2=0.775
.ends

.subckt PM_SKY130_FD_SC_HS__DFBBN_2%A_975_322# 1 2 7 9 12 16 18 19 21 23 24 25
+ 27 28 29 31 32 33 36 37 39 42 45 47 49 55 57 58 61
c185 57 0 1.31864e-19 $X=9.535 $Y=1.095
c186 49 0 1.49644e-19 $X=10.755 $Y=2.035
c187 37 0 6.04573e-20 $X=9.535 $Y=1.385
c188 36 0 2.26093e-19 $X=9.535 $Y=1.385
c189 33 0 1.87607e-19 $X=8.615 $Y=1.095
c190 29 0 1.32682e-19 $X=6.415 $Y=0.425
c191 23 0 1.56987e-19 $X=5.16 $Y=1.61
c192 19 0 2.60146e-19 $X=9.58 $Y=1.885
r193 52 55 4.1907 $w=3.28e-07 $l=1.2e-07 $layer=LI1_cond $X=5.04 $Y=1.775
+ $X2=5.16 $Y2=1.775
r194 52 53 145.28 $w=1.7e-07 $l=1.7e-07 $layer=licon1_POLY $count=1 $X=5.04
+ $Y=1.775 $X2=5.04 $Y2=1.775
r195 47 49 13.7005 $w=1.68e-07 $l=2.1e-07 $layer=LI1_cond $X=10.545 $Y=2.035
+ $X2=10.755 $Y2=2.035
r196 43 58 5.16603 $w=1.7e-07 $l=8.5e-08 $layer=LI1_cond $X=10.545 $Y=1.095
+ $X2=10.46 $Y2=1.095
r197 43 45 18.2674 $w=1.68e-07 $l=2.8e-07 $layer=LI1_cond $X=10.545 $Y=1.095
+ $X2=10.825 $Y2=1.095
r198 42 47 6.81649 $w=1.7e-07 $l=1.20208e-07 $layer=LI1_cond $X=10.46 $Y=1.95
+ $X2=10.545 $Y2=2.035
r199 41 58 1.34256 $w=1.7e-07 $l=8.5e-08 $layer=LI1_cond $X=10.46 $Y=1.18
+ $X2=10.46 $Y2=1.095
r200 41 42 50.2353 $w=1.68e-07 $l=7.7e-07 $layer=LI1_cond $X=10.46 $Y=1.18
+ $X2=10.46 $Y2=1.95
r201 40 57 8.61065 $w=1.7e-07 $l=1.65e-07 $layer=LI1_cond $X=9.7 $Y=1.095
+ $X2=9.535 $Y2=1.095
r202 39 58 5.16603 $w=1.7e-07 $l=8.5e-08 $layer=LI1_cond $X=10.375 $Y=1.095
+ $X2=10.46 $Y2=1.095
r203 39 40 44.0374 $w=1.68e-07 $l=6.75e-07 $layer=LI1_cond $X=10.375 $Y=1.095
+ $X2=9.7 $Y2=1.095
r204 37 62 40.6903 $w=3.3e-07 $l=1.65e-07 $layer=POLY_cond $X=9.535 $Y=1.385
+ $X2=9.535 $Y2=1.55
r205 37 61 46.2115 $w=3.3e-07 $l=1.65e-07 $layer=POLY_cond $X=9.535 $Y=1.385
+ $X2=9.535 $Y2=1.22
r206 36 37 145.28 $w=1.7e-07 $l=1.7e-07 $layer=licon1_POLY $count=1 $X=9.535
+ $Y=1.385 $X2=9.535 $Y2=1.385
r207 34 57 0.89609 $w=3.3e-07 $l=8.5e-08 $layer=LI1_cond $X=9.535 $Y=1.18
+ $X2=9.535 $Y2=1.095
r208 34 36 7.15912 $w=3.28e-07 $l=2.05e-07 $layer=LI1_cond $X=9.535 $Y=1.18
+ $X2=9.535 $Y2=1.385
r209 32 57 8.61065 $w=1.7e-07 $l=1.65e-07 $layer=LI1_cond $X=9.37 $Y=1.095
+ $X2=9.535 $Y2=1.095
r210 32 33 49.2567 $w=1.68e-07 $l=7.55e-07 $layer=LI1_cond $X=9.37 $Y=1.095
+ $X2=8.615 $Y2=1.095
r211 31 33 6.81649 $w=1.7e-07 $l=1.20208e-07 $layer=LI1_cond $X=8.53 $Y=1.01
+ $X2=8.615 $Y2=1.095
r212 30 31 32.6203 $w=1.68e-07 $l=5e-07 $layer=LI1_cond $X=8.53 $Y=0.51 $X2=8.53
+ $Y2=1.01
r213 28 30 6.81649 $w=1.7e-07 $l=1.20208e-07 $layer=LI1_cond $X=8.445 $Y=0.425
+ $X2=8.53 $Y2=0.51
r214 28 29 132.439 $w=1.68e-07 $l=2.03e-06 $layer=LI1_cond $X=8.445 $Y=0.425
+ $X2=6.415 $Y2=0.425
r215 26 29 6.81649 $w=1.7e-07 $l=1.20208e-07 $layer=LI1_cond $X=6.33 $Y=0.51
+ $X2=6.415 $Y2=0.425
r216 26 27 50.8877 $w=1.68e-07 $l=7.8e-07 $layer=LI1_cond $X=6.33 $Y=0.51
+ $X2=6.33 $Y2=1.29
r217 24 27 6.81649 $w=1.7e-07 $l=1.20208e-07 $layer=LI1_cond $X=6.245 $Y=1.375
+ $X2=6.33 $Y2=1.29
r218 24 25 65.2406 $w=1.68e-07 $l=1e-06 $layer=LI1_cond $X=6.245 $Y=1.375
+ $X2=5.245 $Y2=1.375
r219 23 55 4.62375 $w=1.7e-07 $l=1.65e-07 $layer=LI1_cond $X=5.16 $Y=1.61
+ $X2=5.16 $Y2=1.775
r220 22 25 6.81649 $w=1.7e-07 $l=1.20208e-07 $layer=LI1_cond $X=5.16 $Y=1.46
+ $X2=5.245 $Y2=1.375
r221 22 23 9.7861 $w=1.68e-07 $l=1.5e-07 $layer=LI1_cond $X=5.16 $Y=1.46
+ $X2=5.16 $Y2=1.61
r222 19 21 184.767 $w=1.5e-07 $l=5.75e-07 $layer=POLY_cond $X=9.58 $Y=1.885
+ $X2=9.58 $Y2=2.46
r223 18 19 36.0588 $w=1.8e-07 $l=9e-08 $layer=POLY_cond $X=9.58 $Y=1.795
+ $X2=9.58 $Y2=1.885
r224 18 62 95.2339 $w=1.8e-07 $l=2.45e-07 $layer=POLY_cond $X=9.58 $Y=1.795
+ $X2=9.58 $Y2=1.55
r225 16 61 154.24 $w=1.5e-07 $l=4.8e-07 $layer=POLY_cond $X=9.515 $Y=0.74
+ $X2=9.515 $Y2=1.22
r226 10 53 38.5916 $w=2.93e-07 $l=2.03101e-07 $layer=POLY_cond $X=5.125 $Y=1.61
+ $X2=5.04 $Y2=1.775
r227 10 12 364.064 $w=1.5e-07 $l=7.1e-07 $layer=POLY_cond $X=5.125 $Y=1.61
+ $X2=5.125 $Y2=0.9
r228 7 53 55.8646 $w=2.93e-07 $l=2.91633e-07 $layer=POLY_cond $X=4.995 $Y=2.045
+ $X2=5.04 $Y2=1.775
r229 7 9 159.06 $w=1.5e-07 $l=4.95e-07 $layer=POLY_cond $X=4.995 $Y=2.045
+ $X2=4.995 $Y2=2.54
r230 2 49 600 $w=1.7e-07 $l=2.51744e-07 $layer=licon1_PDIFF $count=1 $X=10.625
+ $Y=1.84 $X2=10.755 $Y2=2.035
r231 1 45 182 $w=1.7e-07 $l=3.37824e-07 $layer=licon1_NDIFF $count=1 $X=10.685
+ $Y=0.82 $X2=10.825 $Y2=1.095
.ends

.subckt PM_SKY130_FD_SC_HS__DFBBN_2%SET_B 1 3 6 8 10 13 19 22 23 28 32 39
c128 8 0 1.25046e-19 $X=8.96 $Y=1.885
c129 6 0 1.08905e-19 $X=5.625 $Y=0.9
r130 31 32 145.28 $w=1.7e-07 $l=1.7e-07 $layer=licon1_POLY $count=1 $X=5.58
+ $Y=1.795 $X2=5.58 $Y2=1.795
r131 28 39 9.3 $w=1.7e-07 $l=1.7e-07 $layer=mcon $count=1 $X=8.88 $Y=2.035
+ $X2=8.88 $Y2=2.035
r132 26 32 8.3814 $w=3.28e-07 $l=2.4e-07 $layer=LI1_cond $X=5.58 $Y=2.035
+ $X2=5.58 $Y2=1.795
r133 25 26 9.3 $w=1.7e-07 $l=1.7e-07 $layer=mcon $count=1 $X=5.52 $Y=2.035
+ $X2=5.52 $Y2=2.035
r134 23 25 0.115467 $w=2.3e-07 $l=1.45e-07 $layer=MET1_cond $X=5.665 $Y=2.035
+ $X2=5.52 $Y2=2.035
r135 22 28 0.115467 $w=2.3e-07 $l=1.45e-07 $layer=MET1_cond $X=8.735 $Y=2.035
+ $X2=8.88 $Y2=2.035
r136 22 23 3.7995 $w=1.4e-07 $l=3.07e-06 $layer=MET1_cond $X=8.735 $Y=2.035
+ $X2=5.665 $Y2=2.035
r137 19 20 145.28 $w=1.7e-07 $l=1.7e-07 $layer=licon1_POLY $count=1 $X=8.995
+ $Y=1.615 $X2=8.995 $Y2=1.615
r138 16 39 12.7771 $w=2.28e-07 $l=2.55e-07 $layer=LI1_cond $X=8.88 $Y=1.78
+ $X2=8.88 $Y2=2.035
r139 15 19 4.01609 $w=3.28e-07 $l=1.15e-07 $layer=LI1_cond $X=8.88 $Y=1.615
+ $X2=8.995 $Y2=1.615
r140 15 16 2.85155 $w=2.3e-07 $l=1.65e-07 $layer=LI1_cond $X=8.88 $Y=1.615
+ $X2=8.88 $Y2=1.78
r141 11 20 38.5916 $w=2.93e-07 $l=2.05122e-07 $layer=POLY_cond $X=9.085 $Y=1.45
+ $X2=8.995 $Y2=1.615
r142 11 13 364.064 $w=1.5e-07 $l=7.1e-07 $layer=POLY_cond $X=9.085 $Y=1.45
+ $X2=9.085 $Y2=0.74
r143 8 20 55.8646 $w=2.93e-07 $l=2.86967e-07 $layer=POLY_cond $X=8.96 $Y=1.885
+ $X2=8.995 $Y2=1.615
r144 8 10 184.767 $w=1.5e-07 $l=5.75e-07 $layer=POLY_cond $X=8.96 $Y=1.885
+ $X2=8.96 $Y2=2.46
r145 4 31 38.5562 $w=2.99e-07 $l=1.86145e-07 $layer=POLY_cond $X=5.625 $Y=1.63
+ $X2=5.58 $Y2=1.795
r146 4 6 374.319 $w=1.5e-07 $l=7.3e-07 $layer=POLY_cond $X=5.625 $Y=1.63
+ $X2=5.625 $Y2=0.9
r147 1 31 52.2586 $w=2.99e-07 $l=2.85044e-07 $layer=POLY_cond $X=5.505 $Y=2.045
+ $X2=5.58 $Y2=1.795
r148 1 3 159.06 $w=1.5e-07 $l=4.95e-07 $layer=POLY_cond $X=5.505 $Y=2.045
+ $X2=5.505 $Y2=2.54
.ends

.subckt PM_SKY130_FD_SC_HS__DFBBN_2%A_27_74# 1 2 10 11 13 14 15 19 20 22 23 25
+ 26 28 32 33 34 38 39 41 42 43 44 45 47 51 53 54 55 58 60 66
c191 33 0 1.71006e-19 $X=7.325 $Y=1.26
c192 32 0 1.06658e-19 $X=6.6 $Y=0.835
c193 19 0 6.36774e-20 $X=2.93 $Y=0.805
r194 66 67 145.28 $w=1.7e-07 $l=1.7e-07 $layer=licon1_POLY $count=1 $X=0.96
+ $Y=1.465 $X2=0.96 $Y2=1.465
r195 63 66 7.33373 $w=3.28e-07 $l=2.1e-07 $layer=LI1_cond $X=0.75 $Y=1.465
+ $X2=0.96 $Y2=1.465
r196 59 63 4.62375 $w=1.7e-07 $l=1.65e-07 $layer=LI1_cond $X=0.75 $Y=1.63
+ $X2=0.75 $Y2=1.465
r197 59 60 20.877 $w=1.68e-07 $l=3.2e-07 $layer=LI1_cond $X=0.75 $Y=1.63
+ $X2=0.75 $Y2=1.95
r198 58 63 4.62375 $w=1.7e-07 $l=1.65e-07 $layer=LI1_cond $X=0.75 $Y=1.3
+ $X2=0.75 $Y2=1.465
r199 57 58 11.0909 $w=1.68e-07 $l=1.7e-07 $layer=LI1_cond $X=0.75 $Y=1.13
+ $X2=0.75 $Y2=1.3
r200 56 62 5.12568 $w=1.7e-07 $l=1.65e-07 $layer=LI1_cond $X=0.435 $Y=2.035
+ $X2=0.27 $Y2=2.035
r201 55 60 6.81649 $w=1.7e-07 $l=1.20208e-07 $layer=LI1_cond $X=0.665 $Y=2.035
+ $X2=0.75 $Y2=1.95
r202 55 56 15.0053 $w=1.68e-07 $l=2.3e-07 $layer=LI1_cond $X=0.665 $Y=2.035
+ $X2=0.435 $Y2=2.035
r203 53 57 6.81649 $w=1.7e-07 $l=1.20208e-07 $layer=LI1_cond $X=0.665 $Y=1.045
+ $X2=0.75 $Y2=1.13
r204 53 54 19.5722 $w=1.68e-07 $l=3e-07 $layer=LI1_cond $X=0.665 $Y=1.045
+ $X2=0.365 $Y2=1.045
r205 49 54 7.14316 $w=1.7e-07 $l=1.62019e-07 $layer=LI1_cond $X=0.24 $Y=0.96
+ $X2=0.365 $Y2=1.045
r206 49 51 20.5135 $w=2.48e-07 $l=4.45e-07 $layer=LI1_cond $X=0.24 $Y=0.96
+ $X2=0.24 $Y2=0.515
r207 45 62 2.6405 $w=3.3e-07 $l=8.5e-08 $layer=LI1_cond $X=0.27 $Y=2.12 $X2=0.27
+ $Y2=2.035
r208 45 47 24.2711 $w=3.28e-07 $l=6.95e-07 $layer=LI1_cond $X=0.27 $Y=2.12
+ $X2=0.27 $Y2=2.815
r209 43 44 60.4563 $w=1.8e-07 $l=1.5e-07 $layer=POLY_cond $X=7.43 $Y=1.79
+ $X2=7.43 $Y2=1.94
r210 39 41 91.58 $w=1.5e-07 $l=2.85e-07 $layer=POLY_cond $X=7.445 $Y=2.465
+ $X2=7.445 $Y2=2.75
r211 38 39 36.0588 $w=1.8e-07 $l=9e-08 $layer=POLY_cond $X=7.445 $Y=2.375
+ $X2=7.445 $Y2=2.465
r212 38 44 169.089 $w=1.8e-07 $l=4.35e-07 $layer=POLY_cond $X=7.445 $Y=2.375
+ $X2=7.445 $Y2=1.94
r213 35 43 233.309 $w=1.5e-07 $l=4.55e-07 $layer=POLY_cond $X=7.4 $Y=1.335
+ $X2=7.4 $Y2=1.79
r214 33 35 26.9307 $w=1.5e-07 $l=1.06066e-07 $layer=POLY_cond $X=7.325 $Y=1.26
+ $X2=7.4 $Y2=1.335
r215 33 34 333.298 $w=1.5e-07 $l=6.5e-07 $layer=POLY_cond $X=7.325 $Y=1.26
+ $X2=6.675 $Y2=1.26
r216 30 34 26.9307 $w=1.5e-07 $l=1.06066e-07 $layer=POLY_cond $X=6.6 $Y=1.185
+ $X2=6.675 $Y2=1.26
r217 30 32 179.468 $w=1.5e-07 $l=3.5e-07 $layer=POLY_cond $X=6.6 $Y=1.185
+ $X2=6.6 $Y2=0.835
r218 29 32 297.404 $w=1.5e-07 $l=5.8e-07 $layer=POLY_cond $X=6.6 $Y=0.255
+ $X2=6.6 $Y2=0.835
r219 26 28 91.58 $w=1.5e-07 $l=2.85e-07 $layer=POLY_cond $X=3.535 $Y=2.44
+ $X2=3.535 $Y2=2.725
r220 25 26 36.0588 $w=1.8e-07 $l=9e-08 $layer=POLY_cond $X=3.535 $Y=2.35
+ $X2=3.535 $Y2=2.44
r221 24 25 207.96 $w=1.8e-07 $l=5.35e-07 $layer=POLY_cond $X=3.535 $Y=1.815
+ $X2=3.535 $Y2=2.35
r222 22 24 27.2212 $w=1.5e-07 $l=1.21861e-07 $layer=POLY_cond $X=3.445 $Y=1.74
+ $X2=3.535 $Y2=1.815
r223 22 23 225.617 $w=1.5e-07 $l=4.4e-07 $layer=POLY_cond $X=3.445 $Y=1.74
+ $X2=3.005 $Y2=1.74
r224 21 42 20.4101 $w=1.5e-07 $l=7.5e-08 $layer=POLY_cond $X=3.005 $Y=0.18
+ $X2=2.93 $Y2=0.18
r225 20 29 26.9307 $w=1.5e-07 $l=1.06066e-07 $layer=POLY_cond $X=6.525 $Y=0.18
+ $X2=6.6 $Y2=0.255
r226 20 21 1804.94 $w=1.5e-07 $l=3.52e-06 $layer=POLY_cond $X=6.525 $Y=0.18
+ $X2=3.005 $Y2=0.18
r227 17 23 26.9307 $w=1.5e-07 $l=1.06066e-07 $layer=POLY_cond $X=2.93 $Y=1.665
+ $X2=3.005 $Y2=1.74
r228 17 19 440.979 $w=1.5e-07 $l=8.6e-07 $layer=POLY_cond $X=2.93 $Y=1.665
+ $X2=2.93 $Y2=0.805
r229 16 42 5.30422 $w=1.5e-07 $l=7.5e-08 $layer=POLY_cond $X=2.93 $Y=0.255
+ $X2=2.93 $Y2=0.18
r230 16 19 282.021 $w=1.5e-07 $l=5.5e-07 $layer=POLY_cond $X=2.93 $Y=0.255
+ $X2=2.93 $Y2=0.805
r231 14 42 20.4101 $w=1.5e-07 $l=7.5e-08 $layer=POLY_cond $X=2.855 $Y=0.18
+ $X2=2.93 $Y2=0.18
r232 14 15 951.181 $w=1.5e-07 $l=1.855e-06 $layer=POLY_cond $X=2.855 $Y=0.18
+ $X2=1 $Y2=0.18
r233 11 67 61.4066 $w=2.86e-07 $l=3.07409e-07 $layer=POLY_cond $X=0.945 $Y=1.765
+ $X2=0.96 $Y2=1.465
r234 11 13 204.047 $w=1.5e-07 $l=6.35e-07 $layer=POLY_cond $X=0.945 $Y=1.765
+ $X2=0.945 $Y2=2.4
r235 8 67 38.6549 $w=2.86e-07 $l=1.81659e-07 $layer=POLY_cond $X=0.925 $Y=1.3
+ $X2=0.96 $Y2=1.465
r236 8 10 287.149 $w=1.5e-07 $l=5.6e-07 $layer=POLY_cond $X=0.925 $Y=1.3
+ $X2=0.925 $Y2=0.74
r237 7 15 26.9307 $w=1.5e-07 $l=1.06066e-07 $layer=POLY_cond $X=0.925 $Y=0.255
+ $X2=1 $Y2=0.18
r238 7 10 248.691 $w=1.5e-07 $l=4.85e-07 $layer=POLY_cond $X=0.925 $Y=0.255
+ $X2=0.925 $Y2=0.74
r239 2 62 400 $w=1.7e-07 $l=3.35783e-07 $layer=licon1_PDIFF $count=1 $X=0.135
+ $Y=1.84 $X2=0.27 $Y2=2.115
r240 2 47 400 $w=1.7e-07 $l=1.04031e-06 $layer=licon1_PDIFF $count=1 $X=0.135
+ $Y=1.84 $X2=0.27 $Y2=2.815
r241 1 51 91 $w=1.7e-07 $l=2.05061e-07 $layer=licon1_NDIFF $count=2 $X=0.135
+ $Y=0.37 $X2=0.28 $Y2=0.515
.ends

.subckt PM_SKY130_FD_SC_HS__DFBBN_2%A_1555_410# 1 2 3 10 12 14 17 19 21 22 24 25
+ 27 28 30 31 32 33 35 38 42 47 48 51 52 54 56 57 58 63 66 67 71 75 77
c223 56 0 1.20203e-19 $X=10.225 $Y=2.46
c224 33 0 1.79505e-19 $X=12.935 $Y=1.765
c225 19 0 1.91438e-19 $X=11.505 $Y=1.765
c226 2 0 4.70478e-20 $X=8.59 $Y=1.96
r227 85 86 7.16487 $w=3.7e-07 $l=5.5e-08 $layer=POLY_cond $X=11.955 $Y=1.557
+ $X2=12.01 $Y2=1.557
r228 84 85 48.8514 $w=3.7e-07 $l=3.75e-07 $layer=POLY_cond $X=11.58 $Y=1.557
+ $X2=11.955 $Y2=1.557
r229 83 84 9.77027 $w=3.7e-07 $l=7.5e-08 $layer=POLY_cond $X=11.505 $Y=1.557
+ $X2=11.58 $Y2=1.557
r230 76 83 1.95405 $w=3.7e-07 $l=1.5e-08 $layer=POLY_cond $X=11.49 $Y=1.557
+ $X2=11.505 $Y2=1.557
r231 75 78 8.49906 $w=3.53e-07 $l=1.65e-07 $layer=LI1_cond $X=11.467 $Y=1.515
+ $X2=11.467 $Y2=1.68
r232 75 77 8.49906 $w=3.53e-07 $l=1.65e-07 $layer=LI1_cond $X=11.467 $Y=1.515
+ $X2=11.467 $Y2=1.35
r233 75 76 145.28 $w=1.7e-07 $l=1.7e-07 $layer=licon1_POLY $count=1 $X=11.49
+ $Y=1.515 $X2=11.49 $Y2=1.515
r234 69 71 8.85254 $w=2.43e-07 $l=1.65e-07 $layer=LI1_cond $X=9.77 $Y=0.717
+ $X2=9.935 $Y2=0.717
r235 65 67 8.48848 $w=3.48e-07 $l=1.65e-07 $layer=LI1_cond $X=8.735 $Y=2.805
+ $X2=8.9 $Y2=2.805
r236 65 66 8.48848 $w=3.48e-07 $l=1.65e-07 $layer=LI1_cond $X=8.735 $Y=2.805
+ $X2=8.57 $Y2=2.805
r237 63 78 39.7968 $w=1.68e-07 $l=6.1e-07 $layer=LI1_cond $X=11.375 $Y=2.29
+ $X2=11.375 $Y2=1.68
r238 60 77 33.2727 $w=1.68e-07 $l=5.1e-07 $layer=LI1_cond $X=11.375 $Y=0.84
+ $X2=11.375 $Y2=1.35
r239 59 73 5.12568 $w=1.7e-07 $l=1.65e-07 $layer=LI1_cond $X=10.39 $Y=2.375
+ $X2=10.225 $Y2=2.375
r240 58 63 6.81649 $w=1.7e-07 $l=1.20208e-07 $layer=LI1_cond $X=11.29 $Y=2.375
+ $X2=11.375 $Y2=2.29
r241 58 59 58.7166 $w=1.68e-07 $l=9e-07 $layer=LI1_cond $X=11.29 $Y=2.375
+ $X2=10.39 $Y2=2.375
r242 56 73 2.6405 $w=3.3e-07 $l=8.5e-08 $layer=LI1_cond $X=10.225 $Y=2.46
+ $X2=10.225 $Y2=2.375
r243 56 57 5.93683 $w=3.28e-07 $l=1.7e-07 $layer=LI1_cond $X=10.225 $Y=2.46
+ $X2=10.225 $Y2=2.63
r244 54 60 6.81649 $w=1.7e-07 $l=1.20208e-07 $layer=LI1_cond $X=11.29 $Y=0.755
+ $X2=11.375 $Y2=0.84
r245 54 71 88.4011 $w=1.68e-07 $l=1.355e-06 $layer=LI1_cond $X=11.29 $Y=0.755
+ $X2=9.935 $Y2=0.755
r246 52 57 7.76618 $w=1.7e-07 $l=2.03101e-07 $layer=LI1_cond $X=10.06 $Y=2.715
+ $X2=10.225 $Y2=2.63
r247 52 67 75.6791 $w=1.68e-07 $l=1.16e-06 $layer=LI1_cond $X=10.06 $Y=2.715
+ $X2=8.9 $Y2=2.715
r248 51 66 20.5508 $w=1.68e-07 $l=3.15e-07 $layer=LI1_cond $X=8.255 $Y=2.715
+ $X2=8.57 $Y2=2.715
r249 48 81 32.678 $w=3.54e-07 $l=2.4e-07 $layer=POLY_cond $X=8.09 $Y=2.257
+ $X2=8.33 $Y2=2.257
r250 48 79 30.6356 $w=3.54e-07 $l=2.25e-07 $layer=POLY_cond $X=8.09 $Y=2.257
+ $X2=7.865 $Y2=2.257
r251 47 48 145.28 $w=1.7e-07 $l=1.7e-07 $layer=licon1_POLY $count=1 $X=8.09
+ $Y=2.215 $X2=8.09 $Y2=2.215
r252 45 51 7.76618 $w=1.7e-07 $l=2.03101e-07 $layer=LI1_cond $X=8.09 $Y=2.63
+ $X2=8.255 $Y2=2.715
r253 45 47 14.4928 $w=3.28e-07 $l=4.15e-07 $layer=LI1_cond $X=8.09 $Y=2.63
+ $X2=8.09 $Y2=2.215
r254 40 42 94.8617 $w=1.5e-07 $l=1.85e-07 $layer=POLY_cond $X=8.33 $Y=1.81
+ $X2=8.515 $Y2=1.81
r255 36 38 338.426 $w=1.5e-07 $l=6.6e-07 $layer=POLY_cond $X=13.015 $Y=1.35
+ $X2=13.015 $Y2=0.69
r256 33 35 184.767 $w=1.5e-07 $l=5.75e-07 $layer=POLY_cond $X=12.935 $Y=1.765
+ $X2=12.935 $Y2=2.34
r257 32 86 10.4461 $w=3.7e-07 $l=9.3675e-08 $layer=POLY_cond $X=12.085 $Y=1.515
+ $X2=12.01 $Y2=1.557
r258 31 33 62.743 $w=2.03e-07 $l=2.65518e-07 $layer=POLY_cond $X=12.967 $Y=1.515
+ $X2=12.935 $Y2=1.765
r259 31 36 42.5607 $w=2.03e-07 $l=1.8747e-07 $layer=POLY_cond $X=12.967 $Y=1.515
+ $X2=13.015 $Y2=1.35
r260 31 32 132.895 $w=3.3e-07 $l=7.6e-07 $layer=POLY_cond $X=12.845 $Y=1.515
+ $X2=12.085 $Y2=1.515
r261 28 86 23.9667 $w=1.5e-07 $l=2.07e-07 $layer=POLY_cond $X=12.01 $Y=1.35
+ $X2=12.01 $Y2=1.557
r262 28 30 154.24 $w=1.5e-07 $l=4.8e-07 $layer=POLY_cond $X=12.01 $Y=1.35
+ $X2=12.01 $Y2=0.87
r263 25 85 23.9667 $w=1.5e-07 $l=2.08e-07 $layer=POLY_cond $X=11.955 $Y=1.765
+ $X2=11.955 $Y2=1.557
r264 25 27 204.047 $w=1.5e-07 $l=6.35e-07 $layer=POLY_cond $X=11.955 $Y=1.765
+ $X2=11.955 $Y2=2.4
r265 22 84 23.9667 $w=1.5e-07 $l=2.07e-07 $layer=POLY_cond $X=11.58 $Y=1.35
+ $X2=11.58 $Y2=1.557
r266 22 24 154.24 $w=1.5e-07 $l=4.8e-07 $layer=POLY_cond $X=11.58 $Y=1.35
+ $X2=11.58 $Y2=0.87
r267 19 83 23.9667 $w=1.5e-07 $l=2.08e-07 $layer=POLY_cond $X=11.505 $Y=1.765
+ $X2=11.505 $Y2=1.557
r268 19 21 204.047 $w=1.5e-07 $l=6.35e-07 $layer=POLY_cond $X=11.505 $Y=1.765
+ $X2=11.505 $Y2=2.4
r269 15 42 2.83073 $w=1.5e-07 $l=7.5e-08 $layer=POLY_cond $X=8.515 $Y=1.735
+ $X2=8.515 $Y2=1.81
r270 15 17 428.16 $w=1.5e-07 $l=8.35e-07 $layer=POLY_cond $X=8.515 $Y=1.735
+ $X2=8.515 $Y2=0.9
r271 14 81 22.9014 $w=1.5e-07 $l=2.07e-07 $layer=POLY_cond $X=8.33 $Y=2.05
+ $X2=8.33 $Y2=2.257
r272 13 40 2.83073 $w=1.5e-07 $l=7.5e-08 $layer=POLY_cond $X=8.33 $Y=1.885
+ $X2=8.33 $Y2=1.81
r273 13 14 84.6064 $w=1.5e-07 $l=1.65e-07 $layer=POLY_cond $X=8.33 $Y=1.885
+ $X2=8.33 $Y2=2.05
r274 10 79 22.9014 $w=1.5e-07 $l=2.08e-07 $layer=POLY_cond $X=7.865 $Y=2.465
+ $X2=7.865 $Y2=2.257
r275 10 12 91.58 $w=1.5e-07 $l=2.85e-07 $layer=POLY_cond $X=7.865 $Y=2.465
+ $X2=7.865 $Y2=2.75
r276 3 73 300 $w=1.7e-07 $l=5.65044e-07 $layer=licon1_PDIFF $count=2 $X=10.075
+ $Y=1.96 $X2=10.225 $Y2=2.455
r277 2 65 600 $w=1.7e-07 $l=9.14631e-07 $layer=licon1_PDIFF $count=1 $X=8.59
+ $Y=1.96 $X2=8.735 $Y2=2.805
r278 1 69 182 $w=1.7e-07 $l=4.25588e-07 $layer=licon1_NDIFF $count=1 $X=9.59
+ $Y=0.37 $X2=9.77 $Y2=0.715
.ends

.subckt PM_SKY130_FD_SC_HS__DFBBN_2%A_1335_112# 1 2 9 11 13 14 24 28 29 31 33 34
+ 35 36 37 39 40 42
c139 42 0 1.03189e-19 $X=8.51 $Y=1.805
c140 36 0 1.39943e-19 $X=9.805 $Y=1.89
c141 35 0 4.70478e-20 $X=8.595 $Y=2.375
c142 11 0 1.01047e-19 $X=10 $Y=1.885
r143 46 47 145.28 $w=1.7e-07 $l=1.7e-07 $layer=licon1_POLY $count=1 $X=10.075
+ $Y=1.635 $X2=10.075 $Y2=1.635
r144 41 42 20.877 $w=1.68e-07 $l=3.2e-07 $layer=LI1_cond $X=8.19 $Y=1.805
+ $X2=8.51 $Y2=1.805