* File: sky130_fd_sc_hs__sdfrbp_1.pex.spice
* Created: Tue Sep  1 20:22:19 2020
* Program "Calibre xRC"
* Version "v2018.4_34.26"
* Nominal Temperature: 27C
* Circuit Temperature: 27C
* 
.subckt PM_SKY130_FD_SC_HS__SDFRBP_1%A_27_74# 1 2 7 9 10 12 15 18 21 22 24 26 31
+ 33
c80 33 0 4.33637e-20 $X=2.53 $Y=1.995
r81 33 36 4.88915 $w=3.28e-07 $l=1.4e-07 $layer=LI1_cond $X=2.53 $Y=1.995
+ $X2=2.53 $Y2=2.135
r82 33 34 145.28 $w=1.7e-07 $l=1.7e-07 $layer=licon1_POLY $count=1 $X=2.53
+ $Y=1.995 $X2=2.53 $Y2=1.995
r83 30 31 12.4206 $w=9.23e-07 $l=1.65e-07 $layer=LI1_cond $X=0.89 $Y=2.512
+ $X2=1.055 $Y2=2.512
r84 24 36 4.62375 $w=1.7e-07 $l=1.65e-07 $layer=LI1_cond $X=2.365 $Y=2.135
+ $X2=2.53 $Y2=2.135
r85 24 31 85.4652 $w=1.68e-07 $l=1.31e-06 $layer=LI1_cond $X=2.365 $Y=2.135
+ $X2=1.055 $Y2=2.135
r86 21 22 145.28 $w=1.7e-07 $l=1.7e-07 $layer=licon1_POLY $count=1 $X=1.23
+ $Y=1.145 $X2=1.23 $Y2=1.145
r87 19 26 0.221902 $w=3.3e-07 $l=1.25e-07 $layer=LI1_cond $X=0.365 $Y=1.145
+ $X2=0.24 $Y2=1.145
r88 19 21 30.208 $w=3.28e-07 $l=8.65e-07 $layer=LI1_cond $X=0.365 $Y=1.145
+ $X2=1.23 $Y2=1.145
r89 18 30 9.10054 $w=9.23e-07 $l=6.9e-07 $layer=LI1_cond $X=0.2 $Y=2.512
+ $X2=0.89 $Y2=2.512
r90 17 26 7.38875 $w=2.1e-07 $l=1.83916e-07 $layer=LI1_cond $X=0.2 $Y=1.31
+ $X2=0.24 $Y2=1.145
r91 17 18 48.2781 $w=1.68e-07 $l=7.4e-07 $layer=LI1_cond $X=0.2 $Y=1.31 $X2=0.2
+ $Y2=2.05
r92 13 26 7.38875 $w=2.1e-07 $l=1.65e-07 $layer=LI1_cond $X=0.24 $Y=0.98
+ $X2=0.24 $Y2=1.145
r93 13 15 18.4391 $w=2.48e-07 $l=4e-07 $layer=LI1_cond $X=0.24 $Y=0.98 $X2=0.24
+ $Y2=0.58
r94 10 34 52.2586 $w=2.99e-07 $l=2.7157e-07 $layer=POLY_cond $X=2.485 $Y=2.245
+ $X2=2.53 $Y2=1.995
r95 10 12 126.927 $w=1.5e-07 $l=3.95e-07 $layer=POLY_cond $X=2.485 $Y=2.245
+ $X2=2.485 $Y2=2.64
r96 7 22 45.5222 $w=2.7e-07 $l=3.27261e-07 $layer=POLY_cond $X=1.485 $Y=0.98
+ $X2=1.23 $Y2=1.145
r97 7 9 102.827 $w=1.5e-07 $l=3.2e-07 $layer=POLY_cond $X=1.485 $Y=0.98
+ $X2=1.485 $Y2=0.66
r98 2 30 150 $w=1.7e-07 $l=8.24318e-07 $layer=licon1_PDIFF $count=4 $X=0.135
+ $Y=2.32 $X2=0.89 $Y2=2.465
r99 1 15 182 $w=1.7e-07 $l=2.73038e-07 $layer=licon1_NDIFF $count=1 $X=0.135
+ $Y=0.37 $X2=0.28 $Y2=0.58
.ends

.subckt PM_SKY130_FD_SC_HS__SDFRBP_1%SCE 3 6 7 9 11 12 14 17 19 20 23 24 28 29
+ 30 35 43 48 57 59
c89 24 0 1.81012e-19 $X=2.56 $Y=1.425
r90 48 57 2.36399 $w=3.88e-07 $l=8e-08 $layer=LI1_cond $X=1.6 $Y=1.685 $X2=1.68
+ $Y2=1.685
r91 41 43 28.8521 $w=3.3e-07 $l=1.65e-07 $layer=POLY_cond $X=1.45 $Y=1.715
+ $X2=1.615 $Y2=1.715
r92 41 42 96.8533 $w=1.7e-07 $l=2.55e-07 $layer=licon1_POLY $count=1 $X=1.45
+ $Y=1.715 $X2=1.45 $Y2=1.715
r93 39 41 58.5785 $w=3.3e-07 $l=3.35e-07 $layer=POLY_cond $X=1.115 $Y=1.715
+ $X2=1.45 $Y2=1.715
r94 35 39 15.7375 $w=3.3e-07 $l=9e-08 $layer=POLY_cond $X=1.025 $Y=1.715
+ $X2=1.115 $Y2=1.715
r95 35 37 44.5896 $w=3.3e-07 $l=2.55e-07 $layer=POLY_cond $X=1.025 $Y=1.715
+ $X2=0.77 $Y2=1.715
r96 30 59 7.07103 $w=3.88e-07 $l=1.13e-07 $layer=LI1_cond $X=1.682 $Y=1.685
+ $X2=1.795 $Y2=1.685
r97 30 57 0.0590996 $w=3.88e-07 $l=2e-09 $layer=LI1_cond $X=1.682 $Y=1.685
+ $X2=1.68 $Y2=1.685
r98 30 48 0.0886495 $w=3.88e-07 $l=3e-09 $layer=LI1_cond $X=1.597 $Y=1.685
+ $X2=1.6 $Y2=1.685
r99 30 42 4.34382 $w=3.88e-07 $l=1.47e-07 $layer=LI1_cond $X=1.597 $Y=1.685
+ $X2=1.45 $Y2=1.685
r100 29 42 7.38745 $w=3.88e-07 $l=2.5e-07 $layer=LI1_cond $X=1.2 $Y=1.685
+ $X2=1.45 $Y2=1.685
r101 28 29 14.1839 $w=3.88e-07 $l=4.8e-07 $layer=LI1_cond $X=0.72 $Y=1.685
+ $X2=1.2 $Y2=1.685
r102 28 37 96.8533 $w=1.7e-07 $l=2.55e-07 $layer=licon1_POLY $count=1 $X=0.77
+ $Y=1.715 $X2=0.77 $Y2=1.715
r103 24 46 46.2115 $w=3.3e-07 $l=1.65e-07 $layer=POLY_cond $X=2.56 $Y=1.425
+ $X2=2.56 $Y2=1.26
r104 23 26 5.23838 $w=3.28e-07 $l=1.5e-07 $layer=LI1_cond $X=2.56 $Y=1.425
+ $X2=2.56 $Y2=1.575
r105 23 24 145.28 $w=1.7e-07 $l=1.7e-07 $layer=licon1_POLY $count=1 $X=2.56
+ $Y=1.425 $X2=2.56 $Y2=1.425
r106 20 26 4.62375 $w=1.7e-07 $l=1.65e-07 $layer=LI1_cond $X=2.395 $Y=1.575
+ $X2=2.56 $Y2=1.575
r107 20 59 39.1444 $w=1.68e-07 $l=6e-07 $layer=LI1_cond $X=2.395 $Y=1.575
+ $X2=1.795 $Y2=1.575
r108 19 37 34.9723 $w=3.3e-07 $l=2e-07 $layer=POLY_cond $X=0.57 $Y=1.715
+ $X2=0.77 $Y2=1.715
r109 17 46 289.713 $w=1.5e-07 $l=5.65e-07 $layer=POLY_cond $X=2.65 $Y=0.695
+ $X2=2.65 $Y2=1.26
r110 12 14 126.927 $w=1.5e-07 $l=3.95e-07 $layer=POLY_cond $X=1.615 $Y=2.245
+ $X2=1.615 $Y2=2.64
r111 11 12 36.0588 $w=1.8e-07 $l=9e-08 $layer=POLY_cond $X=1.615 $Y=2.155
+ $X2=1.615 $Y2=2.245
r112 10 43 16.9318 $w=1.8e-07 $l=1.65e-07 $layer=POLY_cond $X=1.615 $Y=1.88
+ $X2=1.615 $Y2=1.715
r113 10 11 106.895 $w=1.8e-07 $l=2.75e-07 $layer=POLY_cond $X=1.615 $Y=1.88
+ $X2=1.615 $Y2=2.155
r114 7 9 126.927 $w=1.5e-07 $l=3.95e-07 $layer=POLY_cond $X=1.115 $Y=2.245
+ $X2=1.115 $Y2=2.64
r115 6 7 36.0588 $w=1.8e-07 $l=9e-08 $layer=POLY_cond $X=1.115 $Y=2.155
+ $X2=1.115 $Y2=2.245
r116 5 39 16.9318 $w=1.8e-07 $l=1.65e-07 $layer=POLY_cond $X=1.115 $Y=1.88
+ $X2=1.115 $Y2=1.715
r117 5 6 106.895 $w=1.8e-07 $l=2.75e-07 $layer=POLY_cond $X=1.115 $Y=1.88
+ $X2=1.115 $Y2=2.155
r118 1 19 32.1775 $w=3.3e-07 $l=1.98997e-07 $layer=POLY_cond $X=0.495 $Y=1.55
+ $X2=0.57 $Y2=1.715
r119 1 3 497.383 $w=1.5e-07 $l=9.7e-07 $layer=POLY_cond $X=0.495 $Y=1.55
+ $X2=0.495 $Y2=0.58
.ends

.subckt PM_SKY130_FD_SC_HS__SDFRBP_1%D 3 5 6 8 9 12 13 14
c44 13 0 1.81012e-19 $X=1.935 $Y=1.145
c45 6 0 4.33637e-20 $X=2.035 $Y=2.245
r46 12 15 40.8147 $w=3.55e-07 $l=1.65e-07 $layer=POLY_cond $X=1.947 $Y=1.145
+ $X2=1.947 $Y2=1.31
r47 12 14 46.504 $w=3.55e-07 $l=1.65e-07 $layer=POLY_cond $X=1.947 $Y=1.145
+ $X2=1.947 $Y2=0.98
r48 12 13 145.28 $w=1.7e-07 $l=1.7e-07 $layer=licon1_POLY $count=1 $X=1.935
+ $Y=1.145 $X2=1.935 $Y2=1.145
r49 9 13 6.1 $w=4.98e-07 $l=2.55e-07 $layer=LI1_cond $X=1.68 $Y=1.06 $X2=1.935
+ $Y2=1.06
r50 6 8 126.927 $w=1.5e-07 $l=3.95e-07 $layer=POLY_cond $X=2.035 $Y=2.245
+ $X2=2.035 $Y2=2.64
r51 5 6 36.0588 $w=1.8e-07 $l=9e-08 $layer=POLY_cond $X=2.035 $Y=2.155 $X2=2.035
+ $Y2=2.245
r52 5 15 328.46 $w=1.8e-07 $l=8.45e-07 $layer=POLY_cond $X=2.035 $Y=2.155
+ $X2=2.035 $Y2=1.31
r53 3 14 102.827 $w=1.5e-07 $l=3.2e-07 $layer=POLY_cond $X=1.99 $Y=0.66 $X2=1.99
+ $Y2=0.98
.ends

.subckt PM_SKY130_FD_SC_HS__SDFRBP_1%SCD 1 3 6 10 11 12 16
c44 11 0 1.32707e-19 $X=3.12 $Y=1.665
r45 11 12 15.0167 $w=3.28e-07 $l=4.3e-07 $layer=LI1_cond $X=3.1 $Y=1.605 $X2=3.1
+ $Y2=2.035
r46 11 16 72.64 $w=1.7e-07 $l=3.4e-07 $layer=licon1_POLY $count=2 $X=3.1
+ $Y=1.605 $X2=3.1 $Y2=1.605
r47 10 16 59.4528 $w=3.3e-07 $l=3.4e-07 $layer=POLY_cond $X=3.1 $Y=1.945 $X2=3.1
+ $Y2=1.605
r48 9 16 41.8716 $w=3.3e-07 $l=1.65e-07 $layer=POLY_cond $X=3.1 $Y=1.44 $X2=3.1
+ $Y2=1.605
r49 6 9 382.011 $w=1.5e-07 $l=7.45e-07 $layer=POLY_cond $X=3.04 $Y=0.695
+ $X2=3.04 $Y2=1.44
r50 1 10 55.1908 $w=2.62e-07 $l=3.3541e-07 $layer=POLY_cond $X=3.025 $Y=2.245
+ $X2=3.1 $Y2=1.945
r51 1 3 126.927 $w=1.5e-07 $l=3.95e-07 $layer=POLY_cond $X=3.025 $Y=2.245
+ $X2=3.025 $Y2=2.64
.ends

.subckt PM_SKY130_FD_SC_HS__SDFRBP_1%RESET_B 3 5 7 10 12 14 16 19 23 30 36 38 39
+ 40 41 42 43 51 54 55 58 61 63 64 65
c220 64 0 1.5378e-19 $X=10.9 $Y=1.845
c221 63 0 2.44776e-20 $X=10.9 $Y=1.845
c222 58 0 1.32707e-19 $X=3.595 $Y=2.032
c223 39 0 8.18376e-20 $X=10.81 $Y=2.37
c224 36 0 6.47027e-20 $X=10.81 $Y=1.335
r225 64 76 5.91795 $w=3.68e-07 $l=1.9e-07 $layer=LI1_cond $X=10.88 $Y=1.845
+ $X2=10.88 $Y2=2.035
r226 63 66 46.2115 $w=3.3e-07 $l=1.65e-07 $layer=POLY_cond $X=10.9 $Y=1.845
+ $X2=10.9 $Y2=2.01
r227 63 65 46.2115 $w=3.3e-07 $l=1.65e-07 $layer=POLY_cond $X=10.9 $Y=1.845
+ $X2=10.9 $Y2=1.68
r228 63 64 145.28 $w=1.7e-07 $l=1.7e-07 $layer=licon1_POLY $count=1 $X=10.9
+ $Y=1.845 $X2=10.9 $Y2=1.845
r229 60 61 145.28 $w=1.7e-07 $l=1.7e-07 $layer=licon1_POLY $count=1 $X=3.95
+ $Y=1.985 $X2=3.95 $Y2=1.985
r230 58 60 47.7961 $w=3.58e-07 $l=3.55e-07 $layer=POLY_cond $X=3.595 $Y=2.032
+ $X2=3.95 $Y2=2.032
r231 57 58 2.01955 $w=3.58e-07 $l=1.5e-08 $layer=POLY_cond $X=3.58 $Y=2.032
+ $X2=3.595 $Y2=2.032
r232 54 55 145.28 $w=1.7e-07 $l=1.7e-07 $layer=licon1_POLY $count=1 $X=7.86
+ $Y=1.985 $X2=7.86 $Y2=1.985
r233 51 76 9.3 $w=1.7e-07 $l=1.7e-07 $layer=mcon $count=1 $X=10.8 $Y=2.035
+ $X2=10.8 $Y2=2.035
r234 49 55 9.3 $w=1.7e-07 $l=1.7e-07 $layer=mcon $count=1 $X=7.92 $Y=2.035
+ $X2=7.92 $Y2=2.035
r235 45 61 9.3 $w=1.7e-07 $l=1.7e-07 $layer=mcon $count=1 $X=4.08 $Y=2.035
+ $X2=4.08 $Y2=2.035
r236 43 49 0.115467 $w=2.3e-07 $l=1.45e-07 $layer=MET1_cond $X=8.065 $Y=2.035
+ $X2=7.92 $Y2=2.035
r237 42 51 0.115467 $w=2.3e-07 $l=1.45e-07 $layer=MET1_cond $X=10.655 $Y=2.035
+ $X2=10.8 $Y2=2.035
r238 42 43 3.20544 $w=1.4e-07 $l=2.59e-06 $layer=MET1_cond $X=10.655 $Y=2.035
+ $X2=8.065 $Y2=2.035
r239 41 45 0.115467 $w=2.3e-07 $l=1.45e-07 $layer=MET1_cond $X=4.225 $Y=2.035
+ $X2=4.08 $Y2=2.035
r240 40 49 0.115467 $w=2.3e-07 $l=1.45e-07 $layer=MET1_cond $X=7.775 $Y=2.035
+ $X2=7.92 $Y2=2.035
r241 40 41 4.39356 $w=1.4e-07 $l=3.55e-06 $layer=MET1_cond $X=7.775 $Y=2.035
+ $X2=4.225 $Y2=2.035
r242 38 39 47.3682 $w=2.1e-07 $l=1.5e-07 $layer=POLY_cond $X=10.81 $Y=2.22
+ $X2=10.81 $Y2=2.37
r243 38 66 107.681 $w=1.5e-07 $l=2.1e-07 $layer=POLY_cond $X=10.84 $Y=2.22
+ $X2=10.84 $Y2=2.01
r244 34 36 135.883 $w=1.5e-07 $l=2.65e-07 $layer=POLY_cond $X=10.545 $Y=1.335
+ $X2=10.81 $Y2=1.335
r245 33 54 31.475 $w=3.3e-07 $l=1.8e-07 $layer=POLY_cond $X=7.68 $Y=1.985
+ $X2=7.86 $Y2=1.985
r246 28 30 151.266 $w=1.5e-07 $l=2.95e-07 $layer=POLY_cond $X=7.31 $Y=1.145
+ $X2=7.605 $Y2=1.145
r247 24 36 2.83073 $w=1.5e-07 $l=7.5e-08 $layer=POLY_cond $X=10.81 $Y=1.41
+ $X2=10.81 $Y2=1.335
r248 24 65 138.447 $w=1.5e-07 $l=2.7e-07 $layer=POLY_cond $X=10.81 $Y=1.41
+ $X2=10.81 $Y2=1.68
r249 23 39 91.58 $w=1.5e-07 $l=2.85e-07 $layer=POLY_cond $X=10.795 $Y=2.655
+ $X2=10.795 $Y2=2.37
r250 17 34 2.83073 $w=1.5e-07 $l=7.5e-08 $layer=POLY_cond $X=10.545 $Y=1.26
+ $X2=10.545 $Y2=1.335
r251 17 19 348.681 $w=1.5e-07 $l=6.8e-07 $layer=POLY_cond $X=10.545 $Y=1.26
+ $X2=10.545 $Y2=0.58
r252 16 33 45.8367 $w=1.79e-07 $l=1.80748e-07 $layer=POLY_cond $X=7.605 $Y=1.82
+ $X2=7.572 $Y2=1.985
r253 15 30 2.83073 $w=1.5e-07 $l=7.5e-08 $layer=POLY_cond $X=7.605 $Y=1.22
+ $X2=7.605 $Y2=1.145
r254 15 16 307.66 $w=1.5e-07 $l=6e-07 $layer=POLY_cond $X=7.605 $Y=1.22
+ $X2=7.605 $Y2=1.82
r255 12 33 70.0713 $w=1.79e-07 $l=2.63363e-07 $layer=POLY_cond $X=7.555 $Y=2.24
+ $X2=7.572 $Y2=1.985
r256 12 14 91.58 $w=1.5e-07 $l=2.85e-07 $layer=POLY_cond $X=7.555 $Y=2.24
+ $X2=7.555 $Y2=2.525
r257 8 28 2.83073 $w=1.5e-07 $l=7.5e-08 $layer=POLY_cond $X=7.31 $Y=1.07
+ $X2=7.31 $Y2=1.145
r258 8 10 192.287 $w=1.5e-07 $l=3.75e-07 $layer=POLY_cond $X=7.31 $Y=1.07
+ $X2=7.31 $Y2=0.695
r259 5 58 23.1716 $w=1.5e-07 $l=2.13e-07 $layer=POLY_cond $X=3.595 $Y=2.245
+ $X2=3.595 $Y2=2.032
r260 5 7 126.927 $w=1.5e-07 $l=3.95e-07 $layer=POLY_cond $X=3.595 $Y=2.245
+ $X2=3.595 $Y2=2.64
r261 1 57 23.1716 $w=1.5e-07 $l=2.12e-07 $layer=POLY_cond $X=3.58 $Y=1.82
+ $X2=3.58 $Y2=2.032
r262 1 3 599.936 $w=1.5e-07 $l=1.17e-06 $layer=POLY_cond $X=3.58 $Y=1.82
+ $X2=3.58 $Y2=0.65
.ends

.subckt PM_SKY130_FD_SC_HS__SDFRBP_1%CLK 1 3 4 6 8 9 13
c48 13 0 1.07514e-19 $X=4.48 $Y=1.385
c49 8 0 1.5551e-19 $X=4.535 $Y=1.385
r50 12 13 72.64 $w=1.7e-07 $l=3.4e-07 $layer=licon1_POLY $count=2 $X=4.48
+ $Y=1.385 $X2=4.48 $Y2=1.385
r51 9 13 12.4588 $w=3.68e-07 $l=4e-07 $layer=LI1_cond $X=4.08 $Y=1.365 $X2=4.48
+ $Y2=1.365
r52 8 12 9.61737 $w=3.3e-07 $l=5.5e-08 $layer=POLY_cond $X=4.535 $Y=1.385
+ $X2=4.48 $Y2=1.385
r53 4 8 100.273 $w=1.75e-07 $l=3.64966e-07 $layer=POLY_cond $X=4.645 $Y=1.745
+ $X2=4.635 $Y2=1.385
r54 4 6 204.047 $w=1.5e-07 $l=6.35e-07 $layer=POLY_cond $X=4.645 $Y=1.745
+ $X2=4.645 $Y2=2.38
r55 1 8 46.5648 $w=1.75e-07 $l=1.77059e-07 $layer=POLY_cond $X=4.61 $Y=1.22
+ $X2=4.635 $Y2=1.385
r56 1 3 154.24 $w=1.5e-07 $l=4.8e-07 $layer=POLY_cond $X=4.61 $Y=1.22 $X2=4.61
+ $Y2=0.74
.ends

.subckt PM_SKY130_FD_SC_HS__SDFRBP_1%A_1023_74# 1 2 8 9 11 12 16 18 20 21 22 23
+ 25 29 30 31 33 34 36 40 41 42 44 45 46 48 50 53 61 66 67 71 73
c209 67 0 1.52128e-19 $X=9.27 $Y=1.07
c210 66 0 1.89691e-19 $X=9.27 $Y=1.07
r211 67 79 15.7375 $w=3.3e-07 $l=9e-08 $layer=POLY_cond $X=9.27 $Y=1.07 $X2=9.27
+ $Y2=1.16
r212 66 67 145.28 $w=1.7e-07 $l=1.7e-07 $layer=licon1_POLY $count=1 $X=9.27
+ $Y=1.07 $X2=9.27 $Y2=1.07
r213 63 66 26.4225 $w=1.68e-07 $l=4.05e-07 $layer=LI1_cond $X=8.865 $Y=0.99
+ $X2=9.27 $Y2=0.99
r214 53 54 145.28 $w=1.7e-07 $l=1.7e-07 $layer=licon1_POLY $count=1 $X=9.67
+ $Y=2.065 $X2=9.67 $Y2=2.065
r215 51 71 0.201461 $w=2.5e-07 $l=1.15e-07 $layer=LI1_cond $X=9.63 $Y=1.575
+ $X2=9.63 $Y2=1.46
r216 51 53 22.5879 $w=2.48e-07 $l=4.9e-07 $layer=LI1_cond $X=9.63 $Y=1.575
+ $X2=9.63 $Y2=2.065
r217 50 71 18.0382 $w=2.28e-07 $l=3.6e-07 $layer=LI1_cond $X=9.27 $Y=1.46
+ $X2=9.63 $Y2=1.46
r218 50 66 9.42908 $w=3.28e-07 $l=2.7e-07 $layer=LI1_cond $X=9.27 $Y=1.345
+ $X2=9.27 $Y2=1.075
r219 48 63 0.716491 $w=1.7e-07 $l=8.5e-08 $layer=LI1_cond $X=8.865 $Y=0.905
+ $X2=8.865 $Y2=0.99
r220 47 48 31.3155 $w=1.68e-07 $l=4.8e-07 $layer=LI1_cond $X=8.865 $Y=0.425
+ $X2=8.865 $Y2=0.905
r221 45 47 6.81649 $w=1.7e-07 $l=1.20208e-07 $layer=LI1_cond $X=8.78 $Y=0.34
+ $X2=8.865 $Y2=0.425
r222 45 46 43.7112 $w=1.68e-07 $l=6.7e-07 $layer=LI1_cond $X=8.78 $Y=0.34
+ $X2=8.11 $Y2=0.34
r223 43 46 6.81649 $w=1.7e-07 $l=1.20208e-07 $layer=LI1_cond $X=8.025 $Y=0.425
+ $X2=8.11 $Y2=0.34
r224 43 44 11.0909 $w=1.68e-07 $l=1.7e-07 $layer=LI1_cond $X=8.025 $Y=0.425
+ $X2=8.025 $Y2=0.595
r225 41 44 6.81649 $w=1.7e-07 $l=1.20208e-07 $layer=LI1_cond $X=7.94 $Y=0.68
+ $X2=8.025 $Y2=0.595
r226 41 42 49.2567 $w=1.68e-07 $l=7.55e-07 $layer=LI1_cond $X=7.94 $Y=0.68
+ $X2=7.185 $Y2=0.68
r227 40 42 6.81649 $w=1.7e-07 $l=1.20208e-07 $layer=LI1_cond $X=7.1 $Y=0.595
+ $X2=7.185 $Y2=0.68
r228 39 40 11.0909 $w=1.68e-07 $l=1.7e-07 $layer=LI1_cond $X=7.1 $Y=0.425
+ $X2=7.1 $Y2=0.595
r229 37 76 40.6903 $w=3.3e-07 $l=1.65e-07 $layer=POLY_cond $X=6.055 $Y=1.74
+ $X2=6.055 $Y2=1.905
r230 37 73 15.7375 $w=3.3e-07 $l=9e-08 $layer=POLY_cond $X=6.055 $Y=1.74
+ $X2=6.055 $Y2=1.65
r231 36 37 145.28 $w=1.7e-07 $l=1.7e-07 $layer=licon1_POLY $count=1 $X=6.055
+ $Y=1.74 $X2=6.055 $Y2=1.74
r232 34 58 7.95652 $w=3.45e-07 $l=3.26671e-07 $layer=LI1_cond $X=5.62 $Y=1.74
+ $X2=5.387 $Y2=1.965
r233 34 36 15.1913 $w=3.28e-07 $l=4.35e-07 $layer=LI1_cond $X=5.62 $Y=1.74
+ $X2=6.055 $Y2=1.74
r234 33 34 8.97647 $w=3.45e-07 $l=2.03101e-07 $layer=LI1_cond $X=5.535 $Y=1.575
+ $X2=5.62 $Y2=1.74
r235 32 61 0.716491 $w=1.7e-07 $l=8.5e-08 $layer=LI1_cond $X=5.535 $Y=1.13
+ $X2=5.535 $Y2=1.045
r236 32 33 29.0321 $w=1.68e-07 $l=4.45e-07 $layer=LI1_cond $X=5.535 $Y=1.13
+ $X2=5.535 $Y2=1.575
r237 30 39 6.81649 $w=1.7e-07 $l=1.20208e-07 $layer=LI1_cond $X=7.015 $Y=0.34
+ $X2=7.1 $Y2=0.425
r238 30 31 104.059 $w=1.68e-07 $l=1.595e-06 $layer=LI1_cond $X=7.015 $Y=0.34
+ $X2=5.42 $Y2=0.34
r239 27 61 15.6578 $w=1.68e-07 $l=2.4e-07 $layer=LI1_cond $X=5.295 $Y=1.045
+ $X2=5.535 $Y2=1.045
r240 27 29 20.5135 $w=2.48e-07 $l=4.45e-07 $layer=LI1_cond $X=5.295 $Y=0.96
+ $X2=5.295 $Y2=0.515
r241 26 31 7.14316 $w=1.7e-07 $l=1.62019e-07 $layer=LI1_cond $X=5.295 $Y=0.425
+ $X2=5.42 $Y2=0.34
r242 26 29 4.14879 $w=2.48e-07 $l=9e-08 $layer=LI1_cond $X=5.295 $Y=0.425
+ $X2=5.295 $Y2=0.515
r243 23 54 60.889 $w=3.02e-07 $l=3.46215e-07 $layer=POLY_cond $X=9.77 $Y=2.37
+ $X2=9.682 $Y2=2.065
r244 23 25 91.58 $w=1.5e-07 $l=2.85e-07 $layer=POLY_cond $X=9.77 $Y=2.37
+ $X2=9.77 $Y2=2.655
r245 21 79 21.2229 $w=1.5e-07 $l=1.65e-07 $layer=POLY_cond $X=9.105 $Y=1.16
+ $X2=9.27 $Y2=1.16
r246 21 22 189.723 $w=1.5e-07 $l=3.7e-07 $layer=POLY_cond $X=9.105 $Y=1.16
+ $X2=8.735 $Y2=1.16
r247 18 22 26.9307 $w=1.5e-07 $l=1.06066e-07 $layer=POLY_cond $X=8.66 $Y=1.085
+ $X2=8.735 $Y2=1.16
r248 18 20 126.927 $w=1.5e-07 $l=3.95e-07 $layer=POLY_cond $X=8.66 $Y=1.085
+ $X2=8.66 $Y2=0.69
r249 14 16 451.234 $w=1.5e-07 $l=8.8e-07 $layer=POLY_cond $X=6.53 $Y=1.575
+ $X2=6.53 $Y2=0.695
r250 13 73 21.2229 $w=1.5e-07 $l=1.65e-07 $layer=POLY_cond $X=6.22 $Y=1.65
+ $X2=6.055 $Y2=1.65
r251 12 14 26.9307 $w=1.5e-07 $l=1.06066e-07 $layer=POLY_cond $X=6.455 $Y=1.65
+ $X2=6.53 $Y2=1.575
r252 12 13 120.5 $w=1.5e-07 $l=2.35e-07 $layer=POLY_cond $X=6.455 $Y=1.65
+ $X2=6.22 $Y2=1.65
r253 9 11 91.58 $w=1.5e-07 $l=2.85e-07 $layer=POLY_cond $X=6.115 $Y=2.24
+ $X2=6.115 $Y2=2.525
r254 8 9 36.0588 $w=1.8e-07 $l=9e-08 $layer=POLY_cond $X=6.115 $Y=2.15 $X2=6.115
+ $Y2=2.24
r255 8 76 95.2339 $w=1.8e-07 $l=2.45e-07 $layer=POLY_cond $X=6.115 $Y=2.15
+ $X2=6.115 $Y2=1.905
r256 2 58 600 $w=1.7e-07 $l=2.10357e-07 $layer=licon1_PDIFF $count=1 $X=5.17
+ $Y=1.82 $X2=5.32 $Y2=1.965
r257 1 29 91 $w=1.7e-07 $l=2.03286e-07 $layer=licon1_NDIFF $count=2 $X=5.115
+ $Y=0.37 $X2=5.255 $Y2=0.515
.ends

.subckt PM_SKY130_FD_SC_HS__SDFRBP_1%A_1369_71# 1 2 9 12 13 15 18 19 21 22 25 28
+ 29 31 35
c108 35 0 1.32669e-19 $X=8.445 $Y=1.02
c109 29 0 4.08738e-20 $X=8.81 $Y=1.415
c110 25 0 1.94589e-20 $X=8.445 $Y=0.81
r111 40 42 6.12014 $w=3.3e-07 $l=3.5e-08 $layer=POLY_cond $X=6.92 $Y=1.595
+ $X2=6.955 $Y2=1.595
r112 31 33 32.7294 $w=2.48e-07 $l=7.1e-07 $layer=LI1_cond $X=8.81 $Y=1.88
+ $X2=8.81 $Y2=2.59
r113 29 36 18.5936 $w=1.68e-07 $l=2.85e-07 $layer=LI1_cond $X=8.81 $Y=1.33
+ $X2=8.525 $Y2=1.33
r114 29 31 21.4354 $w=2.48e-07 $l=4.65e-07 $layer=LI1_cond $X=8.81 $Y=1.415
+ $X2=8.81 $Y2=1.88
r115 28 36 0.716491 $w=1.7e-07 $l=8.5e-08 $layer=LI1_cond $X=8.525 $Y=1.245
+ $X2=8.525 $Y2=1.33
r116 27 35 3.70735 $w=2.5e-07 $l=1.18427e-07 $layer=LI1_cond $X=8.525 $Y=1.105
+ $X2=8.445 $Y2=1.02
r117 27 28 9.13369 $w=1.68e-07 $l=1.4e-07 $layer=LI1_cond $X=8.525 $Y=1.105
+ $X2=8.525 $Y2=1.245
r118 23 35 3.70735 $w=2.5e-07 $l=8.5e-08 $layer=LI1_cond $X=8.445 $Y=0.935
+ $X2=8.445 $Y2=1.02
r119 23 25 4.36531 $w=3.28e-07 $l=1.25e-07 $layer=LI1_cond $X=8.445 $Y=0.935
+ $X2=8.445 $Y2=0.81
r120 21 35 2.76166 $w=1.7e-07 $l=1.65e-07 $layer=LI1_cond $X=8.28 $Y=1.02
+ $X2=8.445 $Y2=1.02
r121 21 22 68.1765 $w=1.68e-07 $l=1.045e-06 $layer=LI1_cond $X=8.28 $Y=1.02
+ $X2=7.235 $Y2=1.02
r122 19 42 29.7264 $w=3.3e-07 $l=1.7e-07 $layer=POLY_cond $X=7.125 $Y=1.595
+ $X2=6.955 $Y2=1.595
r123 18 19 145.28 $w=1.7e-07 $l=1.7e-07 $layer=licon1_POLY $count=1 $X=7.125
+ $Y=1.595 $X2=7.125 $Y2=1.595
r124 16 22 6.96323 $w=1.7e-07 $l=1.46458e-07 $layer=LI1_cond $X=7.125 $Y=1.105
+ $X2=7.235 $Y2=1.02
r125 16 18 25.668 $w=2.18e-07 $l=4.9e-07 $layer=LI1_cond $X=7.125 $Y=1.105
+ $X2=7.125 $Y2=1.595
r126 13 15 91.58 $w=1.5e-07 $l=2.85e-07 $layer=POLY_cond $X=6.955 $Y=2.24
+ $X2=6.955 $Y2=2.525
r127 12 13 36.0588 $w=1.8e-07 $l=9e-08 $layer=POLY_cond $X=6.955 $Y=2.15
+ $X2=6.955 $Y2=2.24
r128 11 42 16.9318 $w=1.8e-07 $l=1.65e-07 $layer=POLY_cond $X=6.955 $Y=1.76
+ $X2=6.955 $Y2=1.595
r129 11 12 151.597 $w=1.8e-07 $l=3.9e-07 $layer=POLY_cond $X=6.955 $Y=1.76
+ $X2=6.955 $Y2=2.15
r130 7 40 21.2229 $w=1.5e-07 $l=1.65e-07 $layer=POLY_cond $X=6.92 $Y=1.43
+ $X2=6.92 $Y2=1.595
r131 7 9 376.883 $w=1.5e-07 $l=7.35e-07 $layer=POLY_cond $X=6.92 $Y=1.43
+ $X2=6.92 $Y2=0.695
r132 2 33 400 $w=1.7e-07 $l=9.26971e-07 $layer=licon1_PDIFF $count=1 $X=8.62
+ $Y=1.735 $X2=8.77 $Y2=2.59
r133 2 31 400 $w=1.7e-07 $l=2.10357e-07 $layer=licon1_PDIFF $count=1 $X=8.62
+ $Y=1.735 $X2=8.77 $Y2=1.88
r134 1 25 182 $w=1.7e-07 $l=5.05173e-07 $layer=licon1_NDIFF $count=1 $X=8.305
+ $Y=0.37 $X2=8.445 $Y2=0.81
.ends

.subckt PM_SKY130_FD_SC_HS__SDFRBP_1%A_1221_97# 1 2 3 12 14 16 17 21 26 27 30 31
+ 33 36 41
c115 33 0 2.05564e-20 $X=8.105 $Y=1.41
c116 30 0 1.29256e-19 $X=7.49 $Y=2.32
c117 21 0 1.35224e-19 $X=6.675 $Y=2.585
r118 41 42 56.0258 $w=2.71e-07 $l=3.15e-07 $layer=POLY_cond $X=8.23 $Y=1.452
+ $X2=8.545 $Y2=1.452
r119 34 41 22.2325 $w=2.71e-07 $l=1.25e-07 $layer=POLY_cond $X=8.105 $Y=1.452
+ $X2=8.23 $Y2=1.452
r120 33 34 145.28 $w=1.7e-07 $l=1.7e-07 $layer=licon1_POLY $count=1 $X=8.105
+ $Y=1.41 $X2=8.105 $Y2=1.41
r121 31 33 22.622 $w=2.68e-07 $l=5.3e-07 $layer=LI1_cond $X=7.575 $Y=1.41
+ $X2=8.105 $Y2=1.41
r122 30 39 10.6888 $w=3.31e-07 $l=3.83445e-07 $layer=LI1_cond $X=7.49 $Y=2.32
+ $X2=7.78 $Y2=2.537
r123 29 31 7.28469 $w=2.7e-07 $l=1.72337e-07 $layer=LI1_cond $X=7.49 $Y=1.545
+ $X2=7.575 $Y2=1.41
r124 29 30 50.5615 $w=1.68e-07 $l=7.75e-07 $layer=LI1_cond $X=7.49 $Y=1.545
+ $X2=7.49 $Y2=2.32
r125 28 36 3.64284 $w=2.55e-07 $l=1.69245e-07 $layer=LI1_cond $X=6.845 $Y=2.405
+ $X2=6.76 $Y2=2.537
r126 27 30 6.01027 $w=3.31e-07 $l=1.20208e-07 $layer=LI1_cond $X=7.405 $Y=2.405
+ $X2=7.49 $Y2=2.32
r127 27 28 36.5348 $w=1.68e-07 $l=5.6e-07 $layer=LI1_cond $X=7.405 $Y=2.405
+ $X2=6.845 $Y2=2.405
r128 26 36 2.83584 $w=1.7e-07 $l=2.17e-07 $layer=LI1_cond $X=6.76 $Y=2.32
+ $X2=6.76 $Y2=2.537
r129 25 26 91.0107 $w=1.68e-07 $l=1.395e-06 $layer=LI1_cond $X=6.76 $Y=0.925
+ $X2=6.76 $Y2=2.32
r130 21 36 3.64284 $w=2.55e-07 $l=1.06325e-07 $layer=LI1_cond $X=6.675 $Y=2.585
+ $X2=6.76 $Y2=2.537
r131 21 23 11.355 $w=3.38e-07 $l=3.35e-07 $layer=LI1_cond $X=6.675 $Y=2.585
+ $X2=6.34 $Y2=2.585
r132 17 25 7.76618 $w=3.3e-07 $l=2.03101e-07 $layer=LI1_cond $X=6.675 $Y=0.76
+ $X2=6.76 $Y2=0.925
r133 17 19 12.5721 $w=3.28e-07 $l=3.6e-07 $layer=LI1_cond $X=6.675 $Y=0.76
+ $X2=6.315 $Y2=0.76
r134 14 42 16.5906 $w=1.5e-07 $l=2.08e-07 $layer=POLY_cond $X=8.545 $Y=1.66
+ $X2=8.545 $Y2=1.452
r135 14 16 184.767 $w=1.5e-07 $l=5.75e-07 $layer=POLY_cond $X=8.545 $Y=1.66
+ $X2=8.545 $Y2=2.235
r136 10 41 16.5906 $w=1.5e-07 $l=2.07e-07 $layer=POLY_cond $X=8.23 $Y=1.245
+ $X2=8.23 $Y2=1.452
r137 10 12 284.585 $w=1.5e-07 $l=5.55e-07 $layer=POLY_cond $X=8.23 $Y=1.245
+ $X2=8.23 $Y2=0.69
r138 3 39 600 $w=1.7e-07 $l=2.85307e-07 $layer=licon1_PDIFF $count=1 $X=7.63
+ $Y=2.315 $X2=7.78 $Y2=2.535
r139 2 23 600 $w=1.7e-07 $l=3.36749e-07 $layer=licon1_PDIFF $count=1 $X=6.19
+ $Y=2.315 $X2=6.34 $Y2=2.585
r140 1 19 182 $w=1.7e-07 $l=3.65205e-07 $layer=licon1_NDIFF $count=1 $X=6.105
+ $Y=0.485 $X2=6.315 $Y2=0.76
.ends

.subckt PM_SKY130_FD_SC_HS__SDFRBP_1%A_850_74# 1 2 7 9 10 12 13 16 17 19 20 23
+ 25 26 27 29 30 32 33 37 38 39 42 44 45 46 48 50 52 55 57 60 68
c192 68 0 1.36582e-19 $X=5.13 $Y=1.465
c193 42 0 1.87517e-19 $X=9.755 $Y=0.58
c194 39 0 6.14302e-20 $X=9.07 $Y=1.585
c195 38 0 2.17443e-21 $X=9.68 $Y=1.585
c196 17 0 1.69935e-19 $X=5.955 $Y=1.26
c197 16 0 1.35224e-19 $X=5.605 $Y=3.075
c198 7 0 2.4889e-19 $X=5.04 $Y=1.185
r199 69 71 33.0468 $w=2.99e-07 $l=2.05e-07 $layer=POLY_cond $X=5.13 $Y=1.465
+ $X2=5.13 $Y2=1.26
r200 68 69 145.28 $w=1.7e-07 $l=1.7e-07 $layer=licon1_POLY $count=1 $X=5.13
+ $Y=1.465 $X2=5.13 $Y2=1.465
r201 65 68 8.03218 $w=3.28e-07 $l=2.3e-07 $layer=LI1_cond $X=4.9 $Y=1.465
+ $X2=5.13 $Y2=1.465
r202 60 63 4.84026 $w=2.48e-07 $l=1.05e-07 $layer=LI1_cond $X=4.46 $Y=1.885
+ $X2=4.46 $Y2=1.99
r203 56 65 4.62375 $w=1.7e-07 $l=1.65e-07 $layer=LI1_cond $X=4.9 $Y=1.63 $X2=4.9
+ $Y2=1.465
r204 56 57 11.0909 $w=1.68e-07 $l=1.7e-07 $layer=LI1_cond $X=4.9 $Y=1.63 $X2=4.9
+ $Y2=1.8
r205 55 65 4.62375 $w=1.7e-07 $l=1.65e-07 $layer=LI1_cond $X=4.9 $Y=1.3 $X2=4.9
+ $Y2=1.465
r206 54 55 18.9198 $w=1.68e-07 $l=2.9e-07 $layer=LI1_cond $X=4.9 $Y=1.01 $X2=4.9
+ $Y2=1.3
r207 53 60 2.99516 $w=1.7e-07 $l=1.25e-07 $layer=LI1_cond $X=4.585 $Y=1.885
+ $X2=4.46 $Y2=1.885
r208 52 57 6.81649 $w=1.7e-07 $l=1.20208e-07 $layer=LI1_cond $X=4.815 $Y=1.885
+ $X2=4.9 $Y2=1.8
r209 52 53 15.0053 $w=1.68e-07 $l=2.3e-07 $layer=LI1_cond $X=4.815 $Y=1.885
+ $X2=4.585 $Y2=1.885
r210 51 59 4.25188 $w=1.7e-07 $l=1.25e-07 $layer=LI1_cond $X=4.48 $Y=0.925
+ $X2=4.355 $Y2=0.925
r211 50 54 6.81649 $w=1.7e-07 $l=1.20208e-07 $layer=LI1_cond $X=4.815 $Y=0.925
+ $X2=4.9 $Y2=1.01
r212 50 51 21.8556 $w=1.68e-07 $l=3.35e-07 $layer=LI1_cond $X=4.815 $Y=0.925
+ $X2=4.48 $Y2=0.925
r213 46 59 2.89128 $w=2.5e-07 $l=8.5e-08 $layer=LI1_cond $X=4.355 $Y=0.84
+ $X2=4.355 $Y2=0.925
r214 46 48 14.9818 $w=2.48e-07 $l=3.25e-07 $layer=LI1_cond $X=4.355 $Y=0.84
+ $X2=4.355 $Y2=0.515
r215 40 42 476.872 $w=1.5e-07 $l=9.3e-07 $layer=POLY_cond $X=9.755 $Y=1.51
+ $X2=9.755 $Y2=0.58
r216 38 40 26.9307 $w=1.5e-07 $l=1.06066e-07 $layer=POLY_cond $X=9.68 $Y=1.585
+ $X2=9.755 $Y2=1.51
r217 38 39 312.787 $w=1.5e-07 $l=6.1e-07 $layer=POLY_cond $X=9.68 $Y=1.585
+ $X2=9.07 $Y2=1.585
r218 35 37 294.84 $w=1.5e-07 $l=5.75e-07 $layer=POLY_cond $X=8.995 $Y=2.81
+ $X2=8.995 $Y2=2.235
r219 34 39 26.9307 $w=1.5e-07 $l=1.06066e-07 $layer=POLY_cond $X=8.995 $Y=1.66
+ $X2=9.07 $Y2=1.585
r220 34 37 294.84 $w=1.5e-07 $l=5.75e-07 $layer=POLY_cond $X=8.995 $Y=1.66
+ $X2=8.995 $Y2=2.235
r221 32 35 36.0588 $w=1.8e-07 $l=9e-08 $layer=POLY_cond $X=8.995 $Y=2.9
+ $X2=8.995 $Y2=2.81
r222 32 33 68.0242 $w=1.8e-07 $l=1.75e-07 $layer=POLY_cond $X=8.995 $Y=2.9
+ $X2=8.995 $Y2=3.075
r223 31 45 23.6879 $w=1.5e-07 $l=9e-08 $layer=POLY_cond $X=6.655 $Y=3.15
+ $X2=6.565 $Y2=3.15
r224 30 33 27.2212 $w=1.5e-07 $l=1.21861e-07 $layer=POLY_cond $X=8.905 $Y=3.15
+ $X2=8.995 $Y2=3.075
r225 30 31 1153.72 $w=1.5e-07 $l=2.25e-06 $layer=POLY_cond $X=8.905 $Y=3.15
+ $X2=6.655 $Y2=3.15
r226 27 29 91.58 $w=1.5e-07 $l=2.85e-07 $layer=POLY_cond $X=6.565 $Y=2.81
+ $X2=6.565 $Y2=2.525
r227 26 45 2.7459 $w=1.8e-07 $l=7.5e-08 $layer=POLY_cond $X=6.565 $Y=3.075
+ $X2=6.565 $Y2=3.15
r228 25 27 36.0588 $w=1.8e-07 $l=9e-08 $layer=POLY_cond $X=6.565 $Y=2.9
+ $X2=6.565 $Y2=2.81
r229 25 26 68.0242 $w=1.8e-07 $l=1.75e-07 $layer=POLY_cond $X=6.565 $Y=2.9
+ $X2=6.565 $Y2=3.075
r230 21 23 251.255 $w=1.5e-07 $l=4.9e-07 $layer=POLY_cond $X=6.03 $Y=1.185
+ $X2=6.03 $Y2=0.695
r231 19 45 23.6879 $w=1.5e-07 $l=9e-08 $layer=POLY_cond $X=6.475 $Y=3.15
+ $X2=6.565 $Y2=3.15
r232 19 20 407.649 $w=1.5e-07 $l=7.95e-07 $layer=POLY_cond $X=6.475 $Y=3.15
+ $X2=5.68 $Y2=3.15
r233 18 44 20.4101 $w=1.5e-07 $l=7.5e-08 $layer=POLY_cond $X=5.68 $Y=1.26
+ $X2=5.605 $Y2=1.26
r234 17 21 26.9307 $w=1.5e-07 $l=1.06066e-07 $layer=POLY_cond $X=5.955 $Y=1.26
+ $X2=6.03 $Y2=1.185
r235 17 18 141.011 $w=1.5e-07 $l=2.75e-07 $layer=POLY_cond $X=5.955 $Y=1.26
+ $X2=5.68 $Y2=1.26
r236 16 20 26.9307 $w=1.5e-07 $l=1.06066e-07 $layer=POLY_cond $X=5.605 $Y=3.075
+ $X2=5.68 $Y2=3.15
r237 15 44 5.30422 $w=1.5e-07 $l=7.5e-08 $layer=POLY_cond $X=5.605 $Y=1.335
+ $X2=5.605 $Y2=1.26
r238 15 16 892.213 $w=1.5e-07 $l=1.74e-06 $layer=POLY_cond $X=5.605 $Y=1.335
+ $X2=5.605 $Y2=3.075
r239 14 71 18.89 $w=1.5e-07 $l=1.65e-07 $layer=POLY_cond $X=5.295 $Y=1.26
+ $X2=5.13 $Y2=1.26
r240 13 44 20.4101 $w=1.5e-07 $l=7.5e-08 $layer=POLY_cond $X=5.53 $Y=1.26
+ $X2=5.605 $Y2=1.26
r241 13 14 120.5 $w=1.5e-07 $l=2.35e-07 $layer=POLY_cond $X=5.53 $Y=1.26
+ $X2=5.295 $Y2=1.26
r242 10 69 57.0947 $w=2.99e-07 $l=2.96985e-07 $layer=POLY_cond $X=5.095 $Y=1.745
+ $X2=5.13 $Y2=1.465
r243 10 12 204.047 $w=1.5e-07 $l=6.35e-07 $layer=POLY_cond $X=5.095 $Y=1.745
+ $X2=5.095 $Y2=2.38
r244 7 71 24.0479 $w=2.99e-07 $l=1.21861e-07 $layer=POLY_cond $X=5.04 $Y=1.185
+ $X2=5.13 $Y2=1.26
r245 7 9 142.993 $w=1.5e-07 $l=4.45e-07 $layer=POLY_cond $X=5.04 $Y=1.185
+ $X2=5.04 $Y2=0.74
r246 2 63 600 $w=1.7e-07 $l=2.31409e-07 $layer=licon1_PDIFF $count=1 $X=4.275
+ $Y=1.82 $X2=4.42 $Y2=1.99
r247 1 59 182 $w=1.7e-07 $l=6.23298e-07 $layer=licon1_NDIFF $count=1 $X=4.25
+ $Y=0.37 $X2=4.395 $Y2=0.925
r248 1 48 182 $w=1.7e-07 $l=2.05061e-07 $layer=licon1_NDIFF $count=1 $X=4.25
+ $Y=0.37 $X2=4.395 $Y2=0.515
.ends

.subckt PM_SKY130_FD_SC_HS__SDFRBP_1%A_2008_48# 1 2 9 11 12 13 15 18 21 22 25 28
+ 29 31 32 34 35 37
c136 29 0 1.60243e-20 $X=11.675 $Y=0.665
c137 21 0 2.44776e-20 $X=10.855 $Y=2.405
c138 18 0 6.47027e-20 $X=10.36 $Y=1.815
r139 37 39 4.01609 $w=3.28e-07 $l=1.15e-07 $layer=LI1_cond $X=11.12 $Y=0.55
+ $X2=11.12 $Y2=0.665
r140 33 34 57.4118 $w=1.68e-07 $l=8.8e-07 $layer=LI1_cond $X=11.76 $Y=0.75
+ $X2=11.76 $Y2=1.63
r141 31 34 6.81649 $w=1.7e-07 $l=1.20208e-07 $layer=LI1_cond $X=11.675 $Y=1.715
+ $X2=11.76 $Y2=1.63
r142 31 32 17.615 $w=1.68e-07 $l=2.7e-07 $layer=LI1_cond $X=11.675 $Y=1.715
+ $X2=11.405 $Y2=1.715
r143 30 39 4.62375 $w=1.7e-07 $l=1.65e-07 $layer=LI1_cond $X=11.285 $Y=0.665
+ $X2=11.12 $Y2=0.665
r144 29 33 6.81649 $w=1.7e-07 $l=1.20208e-07 $layer=LI1_cond $X=11.675 $Y=0.665
+ $X2=11.76 $Y2=0.75
r145 29 30 25.4438 $w=1.68e-07 $l=3.9e-07 $layer=LI1_cond $X=11.675 $Y=0.665
+ $X2=11.285 $Y2=0.665
r146 28 35 3.70735 $w=2.5e-07 $l=2.28583e-07 $layer=LI1_cond $X=11.32 $Y=2.32
+ $X2=11.13 $Y2=2.405
r147 27 32 6.81649 $w=1.7e-07 $l=1.20208e-07 $layer=LI1_cond $X=11.32 $Y=1.8
+ $X2=11.405 $Y2=1.715
r148 27 28 33.9251 $w=1.68e-07 $l=5.2e-07 $layer=LI1_cond $X=11.32 $Y=1.8
+ $X2=11.32 $Y2=2.32
r149 23 35 3.70735 $w=2.5e-07 $l=1.46458e-07 $layer=LI1_cond $X=11.02 $Y=2.49
+ $X2=11.13 $Y2=2.405
r150 23 25 5.76222 $w=3.28e-07 $l=1.65e-07 $layer=LI1_cond $X=11.02 $Y=2.49
+ $X2=11.02 $Y2=2.655
r151 21 35 2.76166 $w=1.7e-07 $l=2.75e-07 $layer=LI1_cond $X=10.855 $Y=2.405
+ $X2=11.13 $Y2=2.405
r152 21 22 21.5294 $w=1.68e-07 $l=3.3e-07 $layer=LI1_cond $X=10.855 $Y=2.405
+ $X2=10.525 $Y2=2.405
r153 18 19 145.28 $w=1.7e-07 $l=1.7e-07 $layer=licon1_POLY $count=1 $X=10.36
+ $Y=1.815 $X2=10.36 $Y2=1.815
r154 16 22 7.21222 $w=1.7e-07 $l=1.67183e-07 $layer=LI1_cond $X=10.395 $Y=2.32
+ $X2=10.525 $Y2=2.405
r155 16 18 22.384 $w=2.58e-07 $l=5.05e-07 $layer=LI1_cond $X=10.395 $Y=2.32
+ $X2=10.395 $Y2=1.815
r156 13 15 91.58 $w=1.5e-07 $l=2.85e-07 $layer=POLY_cond $X=10.16 $Y=2.37
+ $X2=10.16 $Y2=2.655
r157 12 13 36.0588 $w=1.8e-07 $l=9e-08 $layer=POLY_cond $X=10.16 $Y=2.28
+ $X2=10.16 $Y2=2.37
r158 11 19 34.2225 $w=3.69e-07 $l=2.17612e-07 $layer=POLY_cond $X=10.16 $Y=1.98
+ $X2=10.282 $Y2=1.815
r159 11 12 116.613 $w=1.8e-07 $l=3e-07 $layer=POLY_cond $X=10.16 $Y=1.98
+ $X2=10.16 $Y2=2.28
r160 7 19 58.6339 $w=3.69e-07 $l=3.89654e-07 $layer=POLY_cond $X=10.115 $Y=1.5
+ $X2=10.282 $Y2=1.815
r161 7 9 471.745 $w=1.5e-07 $l=9.2e-07 $layer=POLY_cond $X=10.115 $Y=1.5
+ $X2=10.115 $Y2=0.58
r162 2 25 600 $w=1.7e-07 $l=2.74955e-07 $layer=licon1_PDIFF $count=1 $X=10.87
+ $Y=2.445 $X2=11.02 $Y2=2.655
r163 1 37 182 $w=1.7e-07 $l=2.4e-07 $layer=licon1_NDIFF $count=1 $X=10.98
+ $Y=0.37 $X2=11.12 $Y2=0.55
.ends

.subckt PM_SKY130_FD_SC_HS__SDFRBP_1%A_1747_74# 1 2 7 9 10 11 12 14 16 17 19 20
+ 22 23 24 26 27 29 32 40 42 45 47 51 52 56 58 59 61
c180 58 0 8.18376e-20 $X=10.01 $Y=2.425
c181 10 0 1.78926e-19 $X=11.26 $Y=1.02
c182 7 0 1.60243e-20 $X=10.905 $Y=0.87
r183 68 69 4.6235 $w=4.17e-07 $l=4e-08 $layer=POLY_cond $X=11.925 $Y=1.5